<additional xmlns:xsi="http://www.w3.org/2001/XMLSchema-instance" xsi:noNamespaceSchemaLocation="http://sumo.dlr.de/xsd/additional_file.xsd">
    <e1Detector file="NUL" freq="60" friendlyPos="x" id="e1det_-102818928#0.78_1" lane="-102818928#0.78_1" pos="68.4"/>
    <e1Detector file="NUL" freq="60" friendlyPos="x" id="e1det_-102818928#0.78_2" lane="-102818928#0.78_2" pos="68.4"/>
    <e1Detector file="NUL" freq="60" friendlyPos="x" id="e1det_-201969576#0_1" lane="-201969576#0_1" pos="70.83000000000001"/>
    <e1Detector file="NUL" freq="60" friendlyPos="x" id="e1det_-201969576#0_2" lane="-201969576#0_2" pos="70.83000000000001"/>
    <e1Detector file="NUL" freq="60" friendlyPos="x" id="e1det_61940355_1" lane="61940355_1" pos="161.84"/>
    <e1Detector file="NUL" freq="60" friendlyPos="x" id="e1det_61940355_2" lane="61940355_2" pos="161.84"/>
    <e1Detector file="NUL" freq="60" friendlyPos="x" id="e1det_-103512667#0_1" lane="-103512667#0_1" pos="34.839999999999996"/>
    <e1Detector file="NUL" freq="60" friendlyPos="x" id="e1det_145069347#0_1" lane="145069347#0_1" pos="153.5"/>
    <e1Detector file="NUL" freq="60" friendlyPos="x" id="e1det_gneE3_1" lane="gneE3_1" pos="13.42"/>
    <e1Detector file="NUL" freq="60" friendlyPos="x" id="e1det_-103512667#1_1" lane="-103512667#1_1" pos="13.89"/>
    <e1Detector file="NUL" freq="60" friendlyPos="x" id="e1det_103512667#0_1" lane="103512667#0_1" pos="36.379999999999995"/>
    <e1Detector file="NUL" freq="60" friendlyPos="x" id="e1det_145069287#0.136_1" lane="145069287#0.136_1" pos="41.519999999999996"/>
    <e1Detector file="NUL" freq="60" friendlyPos="x" id="e1det_-103512667#2_1" lane="-103512667#2_1" pos="35.809999999999995"/>
    <e1Detector file="NUL" freq="60" friendlyPos="x" id="e1det_103396186_1" lane="103396186_1" pos="8.35"/>
    <e1Detector file="NUL" freq="60" friendlyPos="x" id="e1det_103512667#1_1" lane="103512667#1_1" pos="15.56"/>
    <e1Detector file="NUL" freq="60" friendlyPos="x" id="e1det_-103671248_1" lane="-103671248_1" pos="17.939999999999998"/>
    <e1Detector file="NUL" freq="60" friendlyPos="x" id="e1det_145069357_1" lane="145069357_1" pos="31.29"/>
    <e1Detector file="NUL" freq="60" friendlyPos="x" id="e1det_29002248#1_1" lane="29002248#1_1" pos="61.519999999999996"/>
    <e1Detector file="NUL" freq="60" friendlyPos="x" id="e1det_-104010328_1" lane="-104010328_1" pos="90.25"/>
    <e1Detector file="NUL" freq="60" friendlyPos="x" id="e1det_-25145013#1_1" lane="-25145013#1_1" pos="114.92"/>
    <e1Detector file="NUL" freq="60" friendlyPos="x" id="e1det_25145012#6_1" lane="25145012#6_1" pos="70.75"/>
    <e1Detector file="NUL" freq="60" friendlyPos="x" id="e1det_25145013#0_1" lane="25145013#0_1" pos="93.45"/>
    <e1Detector file="NUL" freq="60" friendlyPos="x" id="e1det_-10425610#2_1" lane="-10425610#2_1" pos="31.47"/>
    <e1Detector file="NUL" freq="60" friendlyPos="x" id="e1det_-10425610#2_2" lane="-10425610#2_2" pos="31.47"/>
    <e1Detector file="NUL" freq="60" friendlyPos="x" id="e1det_-389831364_1" lane="-389831364_1" pos="99.46000000000001"/>
    <e1Detector file="NUL" freq="60" friendlyPos="x" id="e1det_-389831364_2" lane="-389831364_2" pos="99.46000000000001"/>
    <e1Detector file="NUL" freq="60" friendlyPos="x" id="e1det_102818928#1_1" lane="102818928#1_1" pos="54.3"/>
    <e1Detector file="NUL" freq="60" friendlyPos="x" id="e1det_102818928#1_2" lane="102818928#1_2" pos="54.3"/>
    <e1Detector file="NUL" freq="60" friendlyPos="x" id="e1det_-10425611#0.35_1" lane="-10425611#0.35_1" pos="74.07000000000001"/>
    <e1Detector file="NUL" freq="60" friendlyPos="x" id="e1det_-10425611#0.35_2" lane="-10425611#0.35_2" pos="74.07000000000001"/>
    <e1Detector file="NUL" freq="60" friendlyPos="x" id="e1det_-4324827#1_1" lane="-4324827#1_1" pos="78.49000000000001"/>
    <e1Detector file="NUL" freq="60" friendlyPos="x" id="e1det_164051429#1_1" lane="164051429#1_1" pos="52.18"/>
    <e1Detector file="NUL" freq="60" friendlyPos="x" id="e1det_164051429#1_2" lane="164051429#1_2" pos="52.18"/>
    <e1Detector file="NUL" freq="60" friendlyPos="x" id="e1det_164051429#1_3" lane="164051429#1_3" pos="52.18"/>
    <e1Detector file="NUL" freq="60" friendlyPos="x" id="e1det_-10427692#1_1" lane="-10427692#1_1" pos="42.82"/>
    <e1Detector file="NUL" freq="60" friendlyPos="x" id="e1det_-10427692#1_2" lane="-10427692#1_2" pos="42.82"/>
    <e1Detector file="NUL" freq="60" friendlyPos="x" id="e1det_-18809672#1_1" lane="-18809672#1_1" pos="13.67"/>
    <e1Detector file="NUL" freq="60" friendlyPos="x" id="e1det_-201963533#0_1" lane="-201963533#0_1" pos="4.24"/>
    <e1Detector file="NUL" freq="60" friendlyPos="x" id="e1det_-201963533#0_3" lane="-201963533#0_3" pos="4.24"/>
    <e1Detector file="NUL" freq="60" friendlyPos="x" id="e1det_-10427692#5_1" lane="-10427692#5_1" pos="61.379999999999995"/>
    <e1Detector file="NUL" freq="60" friendlyPos="x" id="e1det_-24634516#0_1" lane="-24634516#0_1" pos="0.1"/>
    <e1Detector file="NUL" freq="60" friendlyPos="x" id="e1det_10427692#4_1" lane="10427692#4_1" pos="25.369999999999997"/>
    <e1Detector file="NUL" freq="60" friendlyPos="x" id="e1det_-105482066_1" lane="-105482066_1" pos="221.35"/>
    <e1Detector file="NUL" freq="60" friendlyPos="x" id="e1det_-108310252_1" lane="-108310252_1" pos="70.13000000000001"/>
    <e1Detector file="NUL" freq="60" friendlyPos="x" id="e1det_108239938_1" lane="108239938_1" pos="100.24000000000001"/>
    <e1Detector file="NUL" freq="60" friendlyPos="x" id="e1det_35926319#1_1" lane="35926319#1_1" pos="148.5"/>
    <e1Detector file="NUL" freq="60" friendlyPos="x" id="e1det_-107671228_1" lane="-107671228_1" pos="35.49"/>
    <e1Detector file="NUL" freq="60" friendlyPos="x" id="e1det_-77912241_1" lane="-77912241_1" pos="119.44000000000001"/>
    <e1Detector file="NUL" freq="60" friendlyPos="x" id="e1det_77912233_1" lane="77912233_1" pos="47.19"/>
    <e1Detector file="NUL" freq="60" friendlyPos="x" id="e1det_-108310253_1" lane="-108310253_1" pos="99.81"/>
    <e1Detector file="NUL" freq="60" friendlyPos="x" id="e1det_29458096_1" lane="29458096_1" pos="33.32"/>
    <e1Detector file="NUL" freq="60" friendlyPos="x" id="e1det_-11014139#1_1" lane="-11014139#1_1" pos="58.07"/>
    <e1Detector file="NUL" freq="60" friendlyPos="x" id="e1det_-11014139#1_2" lane="-11014139#1_2" pos="58.07"/>
    <e1Detector file="NUL" freq="60" friendlyPos="x" id="e1det_-145069303#0_1" lane="-145069303#0_1" pos="9.32"/>
    <e1Detector file="NUL" freq="60" friendlyPos="x" id="e1det_-145069303#0_2" lane="-145069303#0_2" pos="9.32"/>
    <e1Detector file="NUL" freq="60" friendlyPos="x" id="e1det_29048562#0_1" lane="29048562#0_1" pos="174.65"/>
    <e1Detector file="NUL" freq="60" friendlyPos="x" id="e1det_29048562#0_2" lane="29048562#0_2" pos="174.65"/>
    <e1Detector file="NUL" freq="60" friendlyPos="x" id="e1det_-115082348#3_1" lane="-115082348#3_1" pos="88.2"/>
    <e1Detector file="NUL" freq="60" friendlyPos="x" id="e1det_115082348#1_1" lane="115082348#1_1" pos="158.28"/>
    <e1Detector file="NUL" freq="60" friendlyPos="x" id="e1det_25640093#7_1" lane="25640093#7_1" pos="22.2"/>
    <e1Detector file="NUL" freq="60" friendlyPos="x" id="e1det_-115082348#5_1" lane="-115082348#5_1" pos="80.60000000000001"/>
    <e1Detector file="NUL" freq="60" friendlyPos="x" id="e1det_115082348#3_1" lane="115082348#3_1" pos="88.2"/>
    <e1Detector file="NUL" freq="60" friendlyPos="x" id="e1det_-115881039_1" lane="-115881039_1" pos="230.18"/>
    <e1Detector file="NUL" freq="60" friendlyPos="x" id="e1det_-115881043#5_1" lane="-115881043#5_1" pos="36.74"/>
    <e1Detector file="NUL" freq="60" friendlyPos="x" id="e1det_115881043#3_1" lane="115881043#3_1" pos="20.59"/>
    <e1Detector file="NUL" freq="60" friendlyPos="x" id="e1det_-115881041#0_1" lane="-115881041#0_1" pos="72.68"/>
    <e1Detector file="NUL" freq="60" friendlyPos="x" id="e1det_-58622231#9_1" lane="-58622231#9_1" pos="173.43"/>
    <e1Detector file="NUL" freq="60" friendlyPos="x" id="e1det_58622231#3_1" lane="58622231#3_1" pos="54.769999999999996"/>
    <e1Detector file="NUL" freq="60" friendlyPos="x" id="e1det_-115881041#3_1" lane="-115881041#3_1" pos="165.73000000000002"/>
    <e1Detector file="NUL" freq="60" friendlyPos="x" id="e1det_-118004624#1_0" lane="-118004624#1_0" pos="89.18"/>
    <e1Detector file="NUL" freq="60" friendlyPos="x" id="e1det_115881041#0_1" lane="115881041#0_1" pos="72.68"/>
    <e1Detector file="NUL" freq="60" friendlyPos="x" id="e1det_-115881041#4_1" lane="-115881041#4_1" pos="68.51"/>
    <e1Detector file="NUL" freq="60" friendlyPos="x" id="e1det_115881035#1_0" lane="115881035#1_0" pos="256.46"/>
    <e1Detector file="NUL" freq="60" friendlyPos="x" id="e1det_115881041#1_1" lane="115881041#1_1" pos="165.75"/>
    <e1Detector file="NUL" freq="60" friendlyPos="x" id="e1det_-115881043#0_1" lane="-115881043#0_1" pos="128.66"/>
    <e1Detector file="NUL" freq="60" friendlyPos="x" id="e1det_-201953160#1_1" lane="-201953160#1_1" pos="198.20000000000002"/>
    <e1Detector file="NUL" freq="60" friendlyPos="x" id="e1det_140834255#0_1" lane="140834255#0_1" pos="62.8"/>
    <e1Detector file="NUL" freq="60" friendlyPos="x" id="e1det_-115881043#10_1" lane="-115881043#10_1" pos="183.32"/>
    <e1Detector file="NUL" freq="60" friendlyPos="x" id="e1det_-115881048#0_1" lane="-115881048#0_1" pos="21.07"/>
    <e1Detector file="NUL" freq="60" friendlyPos="x" id="e1det_115881043#8_1" lane="115881043#8_1" pos="10.35"/>
    <e1Detector file="NUL" freq="60" friendlyPos="x" id="e1det_-115881043#4_1" lane="-115881043#4_1" pos="20.59"/>
    <e1Detector file="NUL" freq="60" friendlyPos="x" id="e1det_115881039_1" lane="115881039_1" pos="211.74"/>
    <e1Detector file="NUL" freq="60" friendlyPos="x" id="e1det_115881043#1_1" lane="115881043#1_1" pos="29.849999999999998"/>
    <e1Detector file="NUL" freq="60" friendlyPos="x" id="e1det_-115881043#6_1" lane="-115881043#6_1" pos="8.88"/>
    <e1Detector file="NUL" freq="60" friendlyPos="x" id="e1det_115881043#5_1" lane="115881043#5_1" pos="36.74"/>
    <e1Detector file="NUL" freq="60" friendlyPos="x" id="e1det_115881049#1_1" lane="115881049#1_1" pos="140.88"/>
    <e1Detector file="NUL" freq="60" friendlyPos="x" id="e1det_-115881043#8_1" lane="-115881043#8_1" pos="9.08"/>
    <e1Detector file="NUL" freq="60" friendlyPos="x" id="e1det_-115881050_1" lane="-115881050_1" pos="113.14"/>
    <e1Detector file="NUL" freq="60" friendlyPos="x" id="e1det_115881043#7_1" lane="115881043#7_1" pos="6.260000000000001"/>
    <e1Detector file="NUL" freq="60" friendlyPos="x" id="e1det_-115881049#0_1" lane="-115881049#0_1" pos="121.68"/>
    <e1Detector file="NUL" freq="60" friendlyPos="x" id="e1det_115881048#0_1" lane="115881048#0_1" pos="21.07"/>
    <e1Detector file="NUL" freq="60" friendlyPos="x" id="e1det_-115881049#2_1" lane="-115881049#2_1" pos="150.55"/>
    <e1Detector file="NUL" freq="60" friendlyPos="x" id="e1det_115881049#0_1" lane="115881049#0_1" pos="115.27000000000001"/>
    <e1Detector file="NUL" freq="60" friendlyPos="x" id="e1det_115881050_1" lane="115881050_1" pos="113.14"/>
    <e1Detector file="NUL" freq="60" friendlyPos="x" id="e1det_-118004640#5_1" lane="-118004640#5_1" pos="110.08000000000001"/>
    <e1Detector file="NUL" freq="60" friendlyPos="x" id="e1det_-589179144_1" lane="-589179144_1" pos="18.2"/>
    <e1Detector file="NUL" freq="60" friendlyPos="x" id="e1det_-589179144_2" lane="-589179144_2" pos="18.2"/>
    <e1Detector file="NUL" freq="60" friendlyPos="x" id="e1det_266887589#0_1" lane="266887589#0_1" pos="268.76"/>
    <e1Detector file="NUL" freq="60" friendlyPos="x" id="e1det_266887589#0_2" lane="266887589#0_2" pos="268.76"/>
    <e1Detector file="NUL" freq="60" friendlyPos="x" id="e1det_-136436466_1" lane="-136436466_1" pos="15.75"/>
    <e1Detector file="NUL" freq="60" friendlyPos="x" id="e1det_-136436466_2" lane="-136436466_2" pos="15.75"/>
    <e1Detector file="NUL" freq="60" friendlyPos="x" id="e1det_386687232#0_1" lane="386687232#0_1" pos="82.96000000000001"/>
    <e1Detector file="NUL" freq="60" friendlyPos="x" id="e1det_386687232#0_2" lane="386687232#0_2" pos="82.96000000000001"/>
    <e1Detector file="NUL" freq="60" friendlyPos="x" id="e1det_-136728347#4_1" lane="-136728347#4_1" pos="265.69"/>
    <e1Detector file="NUL" freq="60" friendlyPos="x" id="e1det_201963533#5_1" lane="201963533#5_1" pos="66.29"/>
    <e1Detector file="NUL" freq="60" friendlyPos="x" id="e1det_26642362#4_1" lane="26642362#4_1" pos="19.77"/>
    <e1Detector file="NUL" freq="60" friendlyPos="x" id="e1det_-136728366#1_1" lane="-136728366#1_1" pos="21.45"/>
    <e1Detector file="NUL" freq="60" friendlyPos="x" id="e1det_-151167738#1_1" lane="-151167738#1_1" pos="8.01"/>
    <e1Detector file="NUL" freq="60" friendlyPos="x" id="e1det_136728366#0_1" lane="136728366#0_1" pos="9.76"/>
    <e1Detector file="NUL" freq="60" friendlyPos="x" id="e1det_151167738#0_1" lane="151167738#0_1" pos="5.03"/>
    <e1Detector file="NUL" freq="60" friendlyPos="x" id="e1det_-137463474#0_1" lane="-137463474#0_1" pos="80.41000000000001"/>
    <e1Detector file="NUL" freq="60" friendlyPos="x" id="e1det_-137463478#0_1" lane="-137463478#0_1" pos="3.29"/>
    <e1Detector file="NUL" freq="60" friendlyPos="x" id="e1det_25902677#0_1" lane="25902677#0_1" pos="89.16000000000001"/>
    <e1Detector file="NUL" freq="60" friendlyPos="x" id="e1det_25902677#0_2" lane="25902677#0_2" pos="89.16000000000001"/>
    <e1Detector file="NUL" freq="60" friendlyPos="x" id="e1det_-137463474#1_1" lane="-137463474#1_1" pos="56.35"/>
    <e1Detector file="NUL" freq="60" friendlyPos="x" id="e1det_-25797315#0_1" lane="-25797315#0_1" pos="94.42"/>
    <e1Detector file="NUL" freq="60" friendlyPos="x" id="e1det_137463474#0_1" lane="137463474#0_1" pos="89.78"/>
    <e1Detector file="NUL" freq="60" friendlyPos="x" id="e1det_-137463478#2_1" lane="-137463478#2_1" pos="89.37"/>
    <e1Detector file="NUL" freq="60" friendlyPos="x" id="e1det_137463478#1_1" lane="137463478#1_1" pos="108.68"/>
    <e1Detector file="NUL" freq="60" friendlyPos="x" id="e1det_32202927#2_1" lane="32202927#2_1" pos="94.96000000000001"/>
    <e1Detector file="NUL" freq="60" friendlyPos="x" id="e1det_-137463478#3_1" lane="-137463478#3_1" pos="75.72"/>
    <e1Detector file="NUL" freq="60" friendlyPos="x" id="e1det_-29238187#0_1" lane="-29238187#0_1" pos="58.6"/>
    <e1Detector file="NUL" freq="60" friendlyPos="x" id="e1det_137463478#2_1" lane="137463478#2_1" pos="89.43"/>
    <e1Detector file="NUL" freq="60" friendlyPos="x" id="e1det_25797433#3_1" lane="25797433#3_1" pos="68.79"/>
    <e1Detector file="NUL" freq="60" friendlyPos="x" id="e1det_-137685135_1" lane="-137685135_1" pos="227.03"/>
    <e1Detector file="NUL" freq="60" friendlyPos="x" id="e1det_-32202011#1_1" lane="-32202011#1_1" pos="14.05"/>
    <e1Detector file="NUL" freq="60" friendlyPos="x" id="e1det_51856496#6_1" lane="51856496#6_1" pos="33.87"/>
    <e1Detector file="NUL" freq="60" friendlyPos="x" id="e1det_-138300620#6_1" lane="-138300620#6_1" pos="133.3"/>
    <e1Detector file="NUL" freq="60" friendlyPos="x" id="e1det_176550249#2_1" lane="176550249#2_1" pos="127.79"/>
    <e1Detector file="NUL" freq="60" friendlyPos="x" id="e1det_176550249#2_2" lane="176550249#2_2" pos="127.79"/>
    <e1Detector file="NUL" freq="60" friendlyPos="x" id="e1det_-138300621#0_1" lane="-138300621#0_1" pos="192.89000000000001"/>
    <e1Detector file="NUL" freq="60" friendlyPos="x" id="e1det_-38305646#2_1" lane="-38305646#2_1" pos="23.139999999999997"/>
    <e1Detector file="NUL" freq="60" friendlyPos="x" id="e1det_38305646#1_1" lane="38305646#1_1" pos="8.27"/>
    <e1Detector file="NUL" freq="60" friendlyPos="x" id="e1det_-138300621#1_1" lane="-138300621#1_1" pos="136.63"/>
    <e1Detector file="NUL" freq="60" friendlyPos="x" id="e1det_-24614922#1_1" lane="-24614922#1_1" pos="104.98"/>
    <e1Detector file="NUL" freq="60" friendlyPos="x" id="e1det_138300621#0_1" lane="138300621#0_1" pos="192.89000000000001"/>
    <e1Detector file="NUL" freq="60" friendlyPos="x" id="e1det_-138300621#2_1" lane="-138300621#2_1" pos="242.61"/>
    <e1Detector file="NUL" freq="60" friendlyPos="x" id="e1det_138300621#1_1" lane="138300621#1_1" pos="145.37"/>
    <e1Detector file="NUL" freq="60" friendlyPos="x" id="e1det_23442105#7_1" lane="23442105#7_1" pos="180.18"/>
    <e1Detector file="NUL" freq="60" friendlyPos="x" id="e1det_-139230366_1" lane="-139230366_1" pos="0.1"/>
    <e1Detector file="NUL" freq="60" friendlyPos="x" id="e1det_-139230366_2" lane="-139230366_2" pos="0.1"/>
    <e1Detector file="NUL" freq="60" friendlyPos="x" id="e1det_233675413#7_1" lane="233675413#7_1" pos="84.33000000000001"/>
    <e1Detector file="NUL" freq="60" friendlyPos="x" id="e1det_25145013#1_1" lane="25145013#1_1" pos="113.31"/>
    <e1Detector file="NUL" freq="60" friendlyPos="x" id="e1det_-140684000#0_1" lane="-140684000#0_1" pos="15.43"/>
    <e1Detector file="NUL" freq="60" friendlyPos="x" id="e1det_-140684000#0_2" lane="-140684000#0_2" pos="15.43"/>
    <e1Detector file="NUL" freq="60" friendlyPos="x" id="e1det_165520706_1" lane="165520706_1" pos="50.8"/>
    <e1Detector file="NUL" freq="60" friendlyPos="x" id="e1det_29238186_1" lane="29238186_1" pos="17.43"/>
    <e1Detector file="NUL" freq="60" friendlyPos="x" id="e1det_-140834247#0_0" lane="-140834247#0_0" pos="29.959999999999997"/>
    <e1Detector file="NUL" freq="60" friendlyPos="x" id="e1det_-140834254#7_1" lane="-140834254#7_1" pos="66.44000000000001"/>
    <e1Detector file="NUL" freq="60" friendlyPos="x" id="e1det_140834254#1_1" lane="140834254#1_1" pos="151.96"/>
    <e1Detector file="NUL" freq="60" friendlyPos="x" id="e1det_-140834249#6_1" lane="-140834249#6_1" pos="249.34"/>
    <e1Detector file="NUL" freq="60" friendlyPos="x" id="e1det_-140834254#0_1" lane="-140834254#0_1" pos="35.5"/>
    <e1Detector file="NUL" freq="60" friendlyPos="x" id="e1det_-201956816#0_1" lane="-201956816#0_1" pos="122.48"/>
    <e1Detector file="NUL" freq="60" friendlyPos="x" id="e1det_201953163#0_1" lane="201953163#0_1" pos="198.76000000000002"/>
    <e1Detector file="NUL" freq="60" friendlyPos="x" id="e1det_-140834254#11_1" lane="-140834254#11_1" pos="36.22"/>
    <e1Detector file="NUL" freq="60" friendlyPos="x" id="e1det_140834254#10_1" lane="140834254#10_1" pos="93.60000000000001"/>
    <e1Detector file="NUL" freq="60" friendlyPos="x" id="e1det_140834270#2_0" lane="140834270#2_0" pos="53.89"/>
    <e1Detector file="NUL" freq="60" friendlyPos="x" id="e1det_-140834254#6_1" lane="-140834254#6_1" pos="148.77"/>
    <e1Detector file="NUL" freq="60" friendlyPos="x" id="e1det_-140834270#1_0" lane="-140834270#1_0" pos="51.26"/>
    <e1Detector file="NUL" freq="60" friendlyPos="x" id="e1det_140834254#0_1" lane="140834254#0_1" pos="35.5"/>
    <e1Detector file="NUL" freq="60" friendlyPos="x" id="e1det_-140834254#8_1" lane="-140834254#8_1" pos="43.379999999999995"/>
    <e1Detector file="NUL" freq="60" friendlyPos="x" id="e1det_140834254#7_1" lane="140834254#7_1" pos="69.25"/>
    <e1Detector file="NUL" freq="60" friendlyPos="x" id="e1det_140834257#3_0" lane="140834257#3_0" pos="150.03"/>
    <e1Detector file="NUL" freq="60" friendlyPos="x" id="e1det_-140834255#1_1" lane="-140834255#1_1" pos="63.11"/>
    <e1Detector file="NUL" freq="60" friendlyPos="x" id="e1det_-201953161#6_1" lane="-201953161#6_1" pos="324.94"/>
    <e1Detector file="NUL" freq="60" friendlyPos="x" id="e1det_140834262#0_1" lane="140834262#0_1" pos="156.35"/>
    <e1Detector file="NUL" freq="60" friendlyPos="x" id="e1det_-140834262#1_1" lane="-140834262#1_1" pos="154.87"/>
    <e1Detector file="NUL" freq="60" friendlyPos="x" id="e1det_-26471933_1" lane="-26471933_1" pos="48.91"/>
    <e1Detector file="NUL" freq="60" friendlyPos="x" id="e1det_26471939#0_0" lane="26471939#0_0" pos="49.809999999999995"/>
    <e1Detector file="NUL" freq="60" friendlyPos="x" id="e1det_-140834270#2_0" lane="-140834270#2_0" pos="53.89"/>
    <e1Detector file="NUL" freq="60" friendlyPos="x" id="e1det_-140834271#0_0" lane="-140834271#0_0" pos="51.3"/>
    <e1Detector file="NUL" freq="60" friendlyPos="x" id="e1det_140834270#0_0" lane="140834270#0_0" pos="51.699999999999996"/>
    <e1Detector file="NUL" freq="60" friendlyPos="x" id="e1det_-144657087#0_1" lane="-144657087#0_1" pos="52.18"/>
    <e1Detector file="NUL" freq="60" friendlyPos="x" id="e1det_31342350#0_1" lane="31342350#0_1" pos="131.96"/>
    <e1Detector file="NUL" freq="60" friendlyPos="x" id="e1det_31342350#0_2" lane="31342350#0_2" pos="131.96"/>
    <e1Detector file="NUL" freq="60" friendlyPos="x" id="e1det_-144657087#1_1" lane="-144657087#1_1" pos="31.27"/>
    <e1Detector file="NUL" freq="60" friendlyPos="x" id="e1det_-61326427#0_1" lane="-61326427#0_1" pos="143.81"/>
    <e1Detector file="NUL" freq="60" friendlyPos="x" id="e1det_144657087#0_1" lane="144657087#0_1" pos="52.18"/>
    <e1Detector file="NUL" freq="60" friendlyPos="x" id="e1det_-144657087#2_1" lane="-144657087#2_1" pos="46.83"/>
    <e1Detector file="NUL" freq="60" friendlyPos="x" id="e1det_144657087#1_1" lane="144657087#1_1" pos="31.27"/>
    <e1Detector file="NUL" freq="60" friendlyPos="x" id="e1det_26176223#1_1" lane="26176223#1_1" pos="170.44"/>
    <e1Detector file="NUL" freq="60" friendlyPos="x" id="e1det_-144657087#3_1" lane="-144657087#3_1" pos="31.61"/>
    <e1Detector file="NUL" freq="60" friendlyPos="x" id="e1det_144657087#2_1" lane="144657087#2_1" pos="47.65"/>
    <e1Detector file="NUL" freq="60" friendlyPos="x" id="e1det_26176225#5_1" lane="26176225#5_1" pos="42.309999999999995"/>
    <e1Detector file="NUL" freq="60" friendlyPos="x" id="e1det_-144657087#4_1" lane="-144657087#4_1" pos="68.42"/>
    <e1Detector file="NUL" freq="60" friendlyPos="x" id="e1det_-25797433#0_1" lane="-25797433#0_1" pos="122.95"/>
    <e1Detector file="NUL" freq="60" friendlyPos="x" id="e1det_-26176222#0_1" lane="-26176222#0_1" pos="134.75"/>
    <e1Detector file="NUL" freq="60" friendlyPos="x" id="e1det_144657087#3_1" lane="144657087#3_1" pos="31.61"/>
    <e1Detector file="NUL" freq="60" friendlyPos="x" id="e1det_-144657087#5_1" lane="-144657087#5_1" pos="85.55000000000001"/>
    <e1Detector file="NUL" freq="60" friendlyPos="x" id="e1det_144657087#4_1" lane="144657087#4_1" pos="67.76"/>
    <e1Detector file="NUL" freq="60" friendlyPos="x" id="e1det_25901706_1" lane="25901706_1" pos="114.56"/>
    <e1Detector file="NUL" freq="60" friendlyPos="x" id="e1det_-144657087#6_1" lane="-144657087#6_1" pos="162.74"/>
    <e1Detector file="NUL" freq="60" friendlyPos="x" id="e1det_144657087#5_1" lane="144657087#5_1" pos="85.72"/>
    <e1Detector file="NUL" freq="60" friendlyPos="x" id="e1det_71900674#2_1" lane="71900674#2_1" pos="111.03"/>
    <e1Detector file="NUL" freq="60" friendlyPos="x" id="e1det_gneE147_1" lane="gneE147_1" pos="67.09"/>
    <e1Detector file="NUL" freq="60" friendlyPos="x" id="e1det_-144659492#0_1" lane="-144659492#0_1" pos="72.57000000000001"/>
    <e1Detector file="NUL" freq="60" friendlyPos="x" id="e1det_77670297#1_1" lane="77670297#1_1" pos="68.08000000000001"/>
    <e1Detector file="NUL" freq="60" friendlyPos="x" id="e1det_-144659492#4_1" lane="-144659492#4_1" pos="171.36"/>
    <e1Detector file="NUL" freq="60" friendlyPos="x" id="e1det_144659492#0_1" lane="144659492#0_1" pos="72.57000000000001"/>
    <e1Detector file="NUL" freq="60" friendlyPos="x" id="e1det_-145069272_1" lane="-145069272_1" pos="44.03"/>
    <e1Detector file="NUL" freq="60" friendlyPos="x" id="e1det_145069363#0_1" lane="145069363#0_1" pos="198.78"/>
    <e1Detector file="NUL" freq="60" friendlyPos="x" id="e1det_gneE176_1" lane="gneE176_1" pos="205.54"/>
    <e1Detector file="NUL" freq="60" friendlyPos="x" id="e1det_-145069284_1" lane="-145069284_1" pos="21.93"/>
    <e1Detector file="NUL" freq="60" friendlyPos="x" id="e1det_145069394#0_1" lane="145069394#0_1" pos="29.979999999999997"/>
    <e1Detector file="NUL" freq="60" friendlyPos="x" id="e1det_-145069287#7.50_1" lane="-145069287#7.50_1" pos="129.1"/>
    <e1Detector file="NUL" freq="60" friendlyPos="x" id="e1det_145069331#0_1" lane="145069331#0_1" pos="189.8"/>
    <e1Detector file="NUL" freq="60" friendlyPos="x" id="e1det_-145069294#1_1" lane="-145069294#1_1" pos="47.9"/>
    <e1Detector file="NUL" freq="60" friendlyPos="x" id="e1det_-32201172_1" lane="-32201172_1" pos="3.31"/>
    <e1Detector file="NUL" freq="60" friendlyPos="x" id="e1det_145069373#0_1" lane="145069373#0_1" pos="125.78"/>
    <e1Detector file="NUL" freq="60" friendlyPos="x" id="e1det_24982688#3_1" lane="24982688#3_1" pos="36.0"/>
    <e1Detector file="NUL" freq="60" friendlyPos="x" id="e1det_-145069303#4_2" lane="-145069303#4_2" pos="35.01"/>
    <e1Detector file="NUL" freq="60" friendlyPos="x" id="e1det_145069303#2_1" lane="145069303#2_1" pos="79.2"/>
    <e1Detector file="NUL" freq="60" friendlyPos="x" id="e1det_145069303#2_2" lane="145069303#2_2" pos="79.2"/>
    <e1Detector file="NUL" freq="60" friendlyPos="x" id="e1det_-145069309_0" lane="-145069309_0" pos="60.48"/>
    <e1Detector file="NUL" freq="60" friendlyPos="x" id="e1det_145069291#0_0" lane="145069291#0_0" pos="36.96"/>
    <e1Detector file="NUL" freq="60" friendlyPos="x" id="e1det_-145069316#0_1" lane="-145069316#0_1" pos="18.169999999999998"/>
    <e1Detector file="NUL" freq="60" friendlyPos="x" id="e1det_145069311#0_1" lane="145069311#0_1" pos="130.59"/>
    <e1Detector file="NUL" freq="60" friendlyPos="x" id="e1det_-145069347#2_1" lane="-145069347#2_1" pos="151.95000000000002"/>
    <e1Detector file="NUL" freq="60" friendlyPos="x" id="e1det_-25122830#2_1" lane="-25122830#2_1" pos="107.42"/>
    <e1Detector file="NUL" freq="60" friendlyPos="x" id="e1det_32230349#0_1" lane="32230349#0_1" pos="163.8"/>
    <e1Detector file="NUL" freq="60" friendlyPos="x" id="e1det_-145069357_1" lane="-145069357_1" pos="31.29"/>
    <e1Detector file="NUL" freq="60" friendlyPos="x" id="e1det_29002252#0_1" lane="29002252#0_1" pos="131.93"/>
    <e1Detector file="NUL" freq="60" friendlyPos="x" id="e1det_62798408_1" lane="62798408_1" pos="28.759999999999998"/>
    <e1Detector file="NUL" freq="60" friendlyPos="x" id="e1det_-145069366#2_1" lane="-145069366#2_1" pos="76.29"/>
    <e1Detector file="NUL" freq="60" friendlyPos="x" id="e1det_-32350852#1_1" lane="-32350852#1_1" pos="259.27"/>
    <e1Detector file="NUL" freq="60" friendlyPos="x" id="e1det_-32350852#1_2" lane="-32350852#1_2" pos="259.27"/>
    <e1Detector file="NUL" freq="60" friendlyPos="x" id="e1det_28418764#2_1" lane="28418764#2_1" pos="65.86"/>
    <e1Detector file="NUL" freq="60" friendlyPos="x" id="e1det_28418764#2_2" lane="28418764#2_2" pos="65.86"/>
    <e1Detector file="NUL" freq="60" friendlyPos="x" id="e1det_-145069369#1_1" lane="-145069369#1_1" pos="30.58"/>
    <e1Detector file="NUL" freq="60" friendlyPos="x" id="e1det_145069280#0_1" lane="145069280#0_1" pos="85.34"/>
    <e1Detector file="NUL" freq="60" friendlyPos="x" id="e1det_145069391_1" lane="145069391_1" pos="13.99"/>
    <e1Detector file="NUL" freq="60" friendlyPos="x" id="e1det_-145069371#0_1" lane="-145069371#0_1" pos="76.47"/>
    <e1Detector file="NUL" freq="60" friendlyPos="x" id="e1det_145069369#0_1" lane="145069369#0_1" pos="30.27"/>
    <e1Detector file="NUL" freq="60" friendlyPos="x" id="e1det_-145069371#1_1" lane="-145069371#1_1" pos="10.07"/>
    <e1Detector file="NUL" freq="60" friendlyPos="x" id="e1det_145069371#0_1" lane="145069371#0_1" pos="76.14"/>
    <e1Detector file="NUL" freq="60" friendlyPos="x" id="e1det_-145069391_1" lane="-145069391_1" pos="14.93"/>
    <e1Detector file="NUL" freq="60" friendlyPos="x" id="e1det_145069394#1_1" lane="145069394#1_1" pos="63.05"/>
    <e1Detector file="NUL" freq="60" friendlyPos="x" id="e1det_-148050447#0_1" lane="-148050447#0_1" pos="108.64"/>
    <e1Detector file="NUL" freq="60" friendlyPos="x" id="e1det_-306431310#1_1" lane="-306431310#1_1" pos="22.849999999999998"/>
    <e1Detector file="NUL" freq="60" friendlyPos="x" id="e1det_148050448#1_1" lane="148050448#1_1" pos="44.51"/>
    <e1Detector file="NUL" freq="60" friendlyPos="x" id="e1det_-148050448#0_1" lane="-148050448#0_1" pos="47.58"/>
    <e1Detector file="NUL" freq="60" friendlyPos="x" id="e1det_-266565295#2_1" lane="-266565295#2_1" pos="181.51000000000002"/>
    <e1Detector file="NUL" freq="60" friendlyPos="x" id="e1det_-266565295#2_2" lane="-266565295#2_2" pos="181.51000000000002"/>
    <e1Detector file="NUL" freq="60" friendlyPos="x" id="e1det_266565295#1_1" lane="266565295#1_1" pos="135.25"/>
    <e1Detector file="NUL" freq="60" friendlyPos="x" id="e1det_266565295#1_2" lane="266565295#1_2" pos="135.25"/>
    <e1Detector file="NUL" freq="60" friendlyPos="x" id="e1det_-148050451#2_1" lane="-148050451#2_1" pos="174.22"/>
    <e1Detector file="NUL" freq="60" friendlyPos="x" id="e1det_-148050452#1_1" lane="-148050452#1_1" pos="122.59"/>
    <e1Detector file="NUL" freq="60" friendlyPos="x" id="e1det_148050452#0_1" lane="148050452#0_1" pos="51.379999999999995"/>
    <e1Detector file="NUL" freq="60" friendlyPos="x" id="e1det_-148050452#0_1" lane="-148050452#0_1" pos="53.29"/>
    <e1Detector file="NUL" freq="60" friendlyPos="x" id="e1det_-148050455#1_1" lane="-148050455#1_1" pos="32.9"/>
    <e1Detector file="NUL" freq="60" friendlyPos="x" id="e1det_148050455#0_1" lane="148050455#0_1" pos="66.54"/>
    <e1Detector file="NUL" freq="60" friendlyPos="x" id="e1det_-148050453#1_1" lane="-148050453#1_1" pos="76.87"/>
    <e1Detector file="NUL" freq="60" friendlyPos="x" id="e1det_-266565295#1_1" lane="-266565295#1_1" pos="137.89000000000001"/>
    <e1Detector file="NUL" freq="60" friendlyPos="x" id="e1det_-266565295#1_2" lane="-266565295#1_2" pos="137.89000000000001"/>
    <e1Detector file="NUL" freq="60" friendlyPos="x" id="e1det_266565295#0_1" lane="266565295#0_1" pos="184.11"/>
    <e1Detector file="NUL" freq="60" friendlyPos="x" id="e1det_266565295#0_2" lane="266565295#0_2" pos="184.11"/>
    <e1Detector file="NUL" freq="60" friendlyPos="x" id="e1det_-148050453#3_1" lane="-148050453#3_1" pos="51.26"/>