<additional xmlns:xsi="http://www.w3.org/2001/XMLSchema-instance" xsi:noNamespaceSchemaLocation="http://sumo.dlr.de/xsd/additional_file.xsd">
    <e1Detector file="NUL" freq="60" friendlyPos="x" id="e1det_A0A1_0" lane="A0A1_0" pos="69.5"/>
    <e1Detector file="NUL" freq="60" friendlyPos="x" id="e1det_A2A1_0" lane="A2A1_0" pos="65.5"/>
    <e1Detector file="NUL" freq="60" friendlyPos="x" id="e1det_B1A1_0" lane="B1A1_0" pos="255.5"/>
    <e1Detector file="NUL" freq="60" friendlyPos="x" id="e1det_A0B0_0" lane="A0B0_0" pos="259.5"/>
    <e1Detector file="NUL" freq="60" friendlyPos="x" id="e1det_B1B0_0" lane="B1B0_0" pos="65.5"/>
    <e1Detector file="NUL" freq="60" friendlyPos="x" id="e1det_C0B0_0" lane="C0B0_0" pos="255.5"/>
    <e1Detector file="NUL" freq="60" friendlyPos="x" id="e1det_A10A11_0" lane="A10A11_0" pos="65.5"/>
    <e1Detector file="NUL" freq="60" friendlyPos="x" id="e1det_A12A11_0" lane="A12A11_0" pos="65.5"/>
    <e1Detector file="NUL" freq="60" friendlyPos="x" id="e1det_B11A11_0" lane="B11A11_0" pos="255.5"/>
    <e1Detector file="NUL" freq="60" friendlyPos="x" id="e1det_A10A9_0" lane="A10A9_0" pos="65.5"/>
    <e1Detector file="NUL" freq="60" friendlyPos="x" id="e1det_A8A9_0" lane="A8A9_0" pos="65.5"/>
    <e1Detector file="NUL" freq="60" friendlyPos="x" id="e1det_B9A9_0" lane="B9A9_0" pos="255.5"/>
    <e1Detector file="NUL" freq="60" friendlyPos="x" id="e1det_A10B10_0" lane="A10B10_0" pos="255.5"/>
    <e1Detector file="NUL" freq="60" friendlyPos="x" id="e1det_B11B10_0" lane="B11B10_0" pos="65.5"/>
    <e1Detector file="NUL" freq="60" friendlyPos="x" id="e1det_B9B10_0" lane="B9B10_0" pos="65.5"/>
    <e1Detector file="NUL" freq="60" friendlyPos="x" id="e1det_C10B10_0" lane="C10B10_0" pos="255.5"/>
    <e1Detector file="NUL" freq="60" friendlyPos="x" id="e1det_A11A10_0" lane="A11A10_0" pos="65.5"/>
    <e1Detector file="NUL" freq="60" friendlyPos="x" id="e1det_A9A10_0" lane="A9A10_0" pos="65.5"/>
    <e1Detector file="NUL" freq="60" friendlyPos="x" id="e1det_B10A10_0" lane="B10A10_0" pos="255.5"/>
    <e1Detector file="NUL" freq="60" friendlyPos="x" id="e1det_A11A12_0" lane="A11A12_0" pos="65.5"/>
    <e1Detector file="NUL" freq="60" friendlyPos="x" id="e1det_A13A12_0" lane="A13A12_0" pos="65.5"/>
    <e1Detector file="NUL" freq="60" friendlyPos="x" id="e1det_B12A12_0" lane="B12A12_0" pos="255.5"/>
    <e1Detector file="NUL" freq="60" friendlyPos="x" id="e1det_A11B11_0" lane="A11B11_0" pos="255.5"/>
    <e1Detector file="NUL" freq="60" friendlyPos="x" id="e1det_B10B11_0" lane="B10B11_0" pos="65.5"/>
    <e1Detector file="NUL" freq="60" friendlyPos="x" id="e1det_B12B11_0" lane="B12B11_0" pos="65.5"/>
    <e1Detector file="NUL" freq="60" friendlyPos="x" id="e1det_C11B11_0" lane="C11B11_0" pos="255.5"/>
    <e1Detector file="NUL" freq="60" friendlyPos="x" id="e1det_A12A13_0" lane="A12A13_0" pos="65.5"/>
    <e1Detector file="NUL" freq="60" friendlyPos="x" id="e1det_A14A13_0" lane="A14A13_0" pos="65.5"/>
    <e1Detector file="NUL" freq="60" friendlyPos="x" id="e1det_B13A13_0" lane="B13A13_0" pos="255.5"/>
    <e1Detector file="NUL" freq="60" friendlyPos="x" id="e1det_A12B12_0" lane="A12B12_0" pos="255.5"/>
    <e1Detector file="NUL" freq="60" friendlyPos="x" id="e1det_B11B12_0" lane="B11B12_0" pos="65.5"/>
    <e1Detector file="NUL" freq="60" friendlyPos="x" id="e1det_B13B12_0" lane="B13B12_0" pos="65.5"/>
    <e1Detector file="NUL" freq="60" friendlyPos="x" id="e1det_C12B12_0" lane="C12B12_0" pos="255.5"/>
    <e1Detector file="NUL" freq="60" friendlyPos="x" id="e1det_A13A14_0" lane="A13A14_0" pos="65.5"/>
    <e1Detector file="NUL" freq="60" friendlyPos="x" id="e1det_A15A14_0" lane="A15A14_0" pos="65.5"/>
    <e1Detector file="NUL" freq="60" friendlyPos="x" id="e1det_B14A14_0" lane="B14A14_0" pos="255.5"/>
    <e1Detector file="NUL" freq="60" friendlyPos="x" id="e1det_A13B13_0" lane="A13B13_0" pos="255.5"/>
    <e1Detector file="NUL" freq="60" friendlyPos="x" id="e1det_B12B13_0" lane="B12B13_0" pos="65.5"/>
    <e1Detector file="NUL" freq="60" friendlyPos="x" id="e1det_B14B13_0" lane="B14B13_0" pos="65.5"/>
    <e1Detector file="NUL" freq="60" friendlyPos="x" id="e1det_C13B13_0" lane="C13B13_0" pos="255.5"/>
    <e1Detector file="NUL" freq="60" friendlyPos="x" id="e1det_A14A15_0" lane="A14A15_0" pos="65.5"/>
    <e1Detector file="NUL" freq="60" friendlyPos="x" id="e1det_A16A15_0" lane="A16A15_0" pos="65.5"/>
    <e1Detector file="NUL" freq="60" friendlyPos="x" id="e1det_B15A15_0" lane="B15A15_0" pos="255.5"/>
    <e1Detector file="NUL" freq="60" friendlyPos="x" id="e1det_A14B14_0" lane="A14B14_0" pos="255.5"/>
    <e1Detector file="NUL" freq="60" friendlyPos="x" id="e1det_B13B14_0" lane="B13B14_0" pos="65.5"/>
    <e1Detector file="NUL" freq="60" friendlyPos="x" id="e1det_B15B14_0" lane="B15B14_0" pos="65.5"/>
    <e1Detector file="NUL" freq="60" friendlyPos="x" id="e1det_C14B14_0" lane="C14B14_0" pos="255.5"/>
    <e1Detector file="NUL" freq="60" friendlyPos="x" id="e1det_A15A16_0" lane="A15A16_0" pos="65.5"/>
    <e1Detector file="NUL" freq="60" friendlyPos="x" id="e1det_A17A16_0" lane="A17A16_0" pos="65.5"/>
    <e1Detector file="NUL" freq="60" friendlyPos="x" id="e1det_B16A16_0" lane="B16A16_0" pos="255.5"/>
    <e1Detector file="NUL" freq="60" friendlyPos="x" id="e1det_A15B15_0" lane="A15B15_0" pos="255.5"/>
    <e1Detector file="NUL" freq="60" friendlyPos="x" id="e1det_B14B15_0" lane="B14B15_0" pos="65.5"/>
    <e1Detector file="NUL" freq="60" friendlyPos="x" id="e1det_B16B15_0" lane="B16B15_0" pos="65.5"/>
    <e1Detector file="NUL" freq="60" friendlyPos="x" id="e1det_C15B15_0" lane="C15B15_0" pos="255.5"/>
    <e1Detector file="NUL" freq="60" friendlyPos="x" id="e1det_A16A17_0" lane="A16A17_0" pos="65.5"/>
    <e1Detector file="NUL" freq="60" friendlyPos="x" id="e1det_A18A17_0" lane="A18A17_0" pos="65.5"/>
    <e1Detector file="NUL" freq="60" friendlyPos="x" id="e1det_B17A17_0" lane="B17A17_0" pos="255.5"/>
    <e1Detector file="NUL" freq="60" friendlyPos="x" id="e1det_A16B16_0" lane="A16B16_0" pos="255.5"/>
    <e1Detector file="NUL" freq="60" friendlyPos="x" id="e1det_B15B16_0" lane="B15B16_0" pos="65.5"/>
    <e1Detector file="NUL" freq="60" friendlyPos="x" id="e1det_B17B16_0" lane="B17B16_0" pos="65.5"/>
    <e1Detector file="NUL" freq="60" friendlyPos="x" id="e1det_C16B16_0" lane="C16B16_0" pos="255.5"/>
    <e1Detector file="NUL" freq="60" friendlyPos="x" id="e1det_A17A18_0" lane="A17A18_0" pos="65.5"/>
    <e1Detector file="NUL" freq="60" friendlyPos="x" id="e1det_A19A18_0" lane="A19A18_0" pos="65.5"/>
    <e1Detector file="NUL" freq="60" friendlyPos="x" id="e1det_B18A18_0" lane="B18A18_0" pos="255.5"/>
    <e1Detector file="NUL" freq="60" friendlyPos="x" id="e1det_A17B17_0" lane="A17B17_0" pos="255.5"/>
    <e1Detector file="NUL" freq="60" friendlyPos="x" id="e1det_B16B17_0" lane="B16B17_0" pos="65.5"/>
    <e1Detector file="NUL" freq="60" friendlyPos="x" id="e1det_B18B17_0" lane="B18B17_0" pos="65.5"/>
    <e1Detector file="NUL" freq="60" friendlyPos="x" id="e1det_C17B17_0" lane="C17B17_0" pos="255.5"/>
    <e1Detector file="NUL" freq="60" friendlyPos="x" id="e1det_A18A19_0" lane="A18A19_0" pos="65.5"/>
    <e1Detector file="NUL" freq="60" friendlyPos="x" id="e1det_A20A19_0" lane="A20A19_0" pos="65.5"/>
    <e1Detector file="NUL" freq="60" friendlyPos="x" id="e1det_B19A19_0" lane="B19A19_0" pos="255.5"/>
    <e1Detector file="NUL" freq="60" friendlyPos="x" id="e1det_A18B18_0" lane="A18B18_0" pos="255.5"/>
    <e1Detector file="NUL" freq="60" friendlyPos="x" id="e1det_B17B18_0" lane="B17B18_0" pos="65.5"/>
    <e1Detector file="NUL" freq="60" friendlyPos="x" id="e1det_B19B18_0" lane="B19B18_0" pos="65.5"/>
    <e1Detector file="NUL" freq="60" friendlyPos="x" id="e1det_C18B18_0" lane="C18B18_0" pos="255.5"/>
    <e1Detector file="NUL" freq="60" friendlyPos="x" id="e1det_A19A20_0" lane="A19A20_0" pos="65.5"/>
    <e1Detector file="NUL" freq="60" friendlyPos="x" id="e1det_A21A20_0" lane="A21A20_0" pos="65.5"/>
    <e1Detector file="NUL" freq="60" friendlyPos="x" id="e1det_B20A20_0" lane="B20A20_0" pos="255.5"/>
    <e1Detector file="NUL" freq="60" friendlyPos="x" id="e1det_A19B19_0" lane="A19B19_0" pos="255.5"/>
    <e1Detector file="NUL" freq="60" friendlyPos="x" id="e1det_B18B19_0" lane="B18B19_0" pos="65.5"/>
    <e1Detector file="NUL" freq="60" friendlyPos="x" id="e1det_B20B19_0" lane="B20B19_0" pos="65.5"/>
    <e1Detector file="NUL" freq="60" friendlyPos="x" id="e1det_C19B19_0" lane="C19B19_0" pos="255.5"/>
    <e1Detector file="NUL" freq="60" friendlyPos="x" id="e1det_A1A0_0" lane="A1A0_0" pos="69.5"/>
    <e1Detector file="NUL" freq="60" friendlyPos="x" id="e1det_B0A0_0" lane="B0A0_0" pos="259.5"/>
    <e1Detector file="NUL" freq="60" friendlyPos="x" id="e1det_A1A2_0" lane="A1A2_0" pos="65.5"/>
    <e1Detector file="NUL" freq="60" friendlyPos="x" id="e1det_A3A2_0" lane="A3A2_0" pos="65.5"/>
    <e1Detector file="NUL" freq="60" friendlyPos="x" id="e1det_B2A2_0" lane="B2A2_0" pos="255.5"/>
    <e1Detector file="NUL" freq="60" friendlyPos="x" id="e1det_A1B1_0" lane="A1B1_0" pos="255.5"/>
    <e1Detector file="NUL" freq="60" friendlyPos="x" id="e1det_B0B1_0" lane="B0B1_0" pos="65.5"/>
    <e1Detector file="NUL" freq="60" friendlyPos="x" id="e1det_B2B1_0" lane="B2B1_0" pos="65.5"/>
    <e1Detector file="NUL" freq="60" friendlyPos="x" id="e1det_C1B1_0" lane="C1B1_0" pos="255.5"/>
    <e1Detector file="NUL" freq="60" friendlyPos="x" id="e1det_A20A21_0" lane="A20A21_0" pos="65.5"/>
    <e1Detector file="NUL" freq="60" friendlyPos="x" id="e1det_A22A21_0" lane="A22A21_0" pos="65.5"/>
    <e1Detector file="NUL" freq="60" friendlyPos="x" id="e1det_B21A21_0" lane="B21A21_0" pos="255.5"/>
    <e1Detector file="NUL" freq="60" friendlyPos="x" id="e1det_A20B20_0" lane="A20B20_0" pos="255.5"/>
    <e1Detector file="NUL" freq="60" friendlyPos="x" id="e1det_B19B20_0" lane="B19B20_0" pos="65.5"/>
    <e1Detector file="NUL" freq="60" friendlyPos="x" id="e1det_B21B20_0" lane="B21B20_0" pos="65.5"/>
    <e1Detector file="NUL" freq="60" friendlyPos="x" id="e1det_C20B20_0" lane="C20B20_0" pos="255.5"/>
    <e1Detector file="NUL" freq="60" friendlyPos="x" id="e1det_A21A22_0" lane="A21A22_0" pos="65.5"/>
    <e1Detector file="NUL" freq="60" friendlyPos="x" id="e1det_A23A22_0" lane="A23A22_0" pos="65.5"/>
    <e1Detector file="NUL" freq="60" friendlyPos="x" id="e1det_B22A22_0" lane="B22A22_0" pos="255.5"/>
    <e1Detector file="NUL" freq="60" friendlyPos="x" id="e1det_A21B21_0" lane="A21B21_0" pos="255.5"/>
    <e1Detector file="NUL" freq="60" friendlyPos="x" id="e1det_B20B21_0" lane="B20B21_0" pos="65.5"/>
    <e1Detector file="NUL" freq="60" friendlyPos="x" id="e1det_B22B21_0" lane="B22B21_0" pos="65.5"/>
    <e1Detector file="NUL" freq="60" friendlyPos="x" id="e1det_C21B21_0" lane="C21B21_0" pos="255.5"/>
    <e1Detector file="NUL" freq="60" friendlyPos="x" id="e1det_A22A23_0" lane="A22A23_0" pos="65.5"/>
    <e1Detector file="NUL" freq="60" friendlyPos="x" id="e1det_A24A23_0" lane="A24A23_0" pos="65.5"/>
    <e1Detector file="NUL" freq="60" friendlyPos="x" id="e1det_B23A23_0" lane="B23A23_0" pos="255.5"/>
    <e1Detector file="NUL" freq="60" friendlyPos="x" id="e1det_A22B22_0" lane="A22B22_0" pos="255.5"/>
    <e1Detector file="NUL" freq="60" friendlyPos="x" id="e1det_B21B22_0" lane="B21B22_0" pos="65.5"/>
    <e1Detector file="NUL" freq="60" friendlyPos="x" id="e1det_B23B22_0" lane="B23B22_0" pos="65.5"/>
    <e1Detector file="NUL" freq="60" friendlyPos="x" id="e1det_C22B22_0" lane="C22B22_0" pos="255.5"/>
    <e1Detector file="NUL" freq="60" friendlyPos="x" id="e1det_A23A24_0" lane="A23A24_0" pos="65.5"/>
    <e1Detector file="NUL" freq="60" friendlyPos="x" id="e1det_A25A24_0" lane="A25A24_0" pos="65.5"/>
    <e1Detector file="NUL" freq="60" friendlyPos="x" id="e1det_B24A24_0" lane="B24A24_0" pos="255.5"/>
    <e1Detector file="NUL" freq="60" friendlyPos="x" id="e1det_A23B23_0" lane="A23B23_0" pos="255.5"/>
    <e1Detector file="NUL" freq="60" friendlyPos="x" id="e1det_B22B23_0" lane="B22B23_0" pos="65.5"/>
    <e1Detector file="NUL" freq="60" friendlyPos="x" id="e1det_B24B23_0" lane="B24B23_0" pos="65.5"/>
    <e1Detector file="NUL" freq="60" friendlyPos="x" id="e1det_C23B23_0" lane="C23B23_0" pos="255.5"/>
    <e1Detector file="NUL" freq="60" friendlyPos="x" id="e1det_A24A25_0" lane="A24A25_0" pos="65.5"/>
    <e1Detector file="NUL" freq="60" friendlyPos="x" id="e1det_A26A25_0" lane="A26A25_0" pos="65.5"/>
    <e1Detector file="NUL" freq="60" friendlyPos="x" id="e1det_B25A25_0" lane="B25A25_0" pos="255.5"/>
    <e1Detector file="NUL" freq="60" friendlyPos="x" id="e1det_A24B24_0" lane="A24B24_0" pos="255.5"/>
    <e1Detector file="NUL" freq="60" friendlyPos="x" id="e1det_B23B24_0" lane="B23B24_0" pos="65.5"/>
    <e1Detector file="NUL" freq="60" friendlyPos="x" id="e1det_B25B24_0" lane="B25B24_0" pos="65.5"/>
    <e1Detector file="NUL" freq="60" friendlyPos="x" id="e1det_C24B24_0" lane="C24B24_0" pos="255.5"/>
    <e1Detector file="NUL" freq="60" friendlyPos="x" id="e1det_A25A26_0" lane="A25A26_0" pos="65.5"/>
    <e1Detector file="NUL" freq="60" friendlyPos="x" id="e1det_A27A26_0" lane="A27A26_0" pos="65.5"/>
    <e1Detector file="NUL" freq="60" friendlyPos="x" id="e1det_B26A26_0" lane="B26A26_0" pos="255.5"/>
    <e1Detector file="NUL" freq="60" friendlyPos="x" id="e1det_A25B25_0" lane="A25B25_0" pos="255.5"/>
    <e1Detector file="NUL" freq="60" friendlyPos="x" id="e1det_B24B25_0" lane="B24B25_0" pos="65.5"/>
    <e1Detector file="NUL" freq="60" friendlyPos="x" id="e1det_B26B25_0" lane="B26B25_0" pos="65.5"/>
    <e1Detector file="NUL" freq="60" friendlyPos="x" id="e1det_C25B25_0" lane="C25B25_0" pos="255.5"/>
    <e1Detector file="NUL" freq="60" friendlyPos="x" id="e1det_A26A27_0" lane="A26A27_0" pos="65.5"/>
    <e1Detector file="NUL" freq="60" friendlyPos="x" id="e1det_A28A27_0" lane="A28A27_0" pos="65.5"/>
    <e1Detector file="NUL" freq="60" friendlyPos="x" id="e1det_B27A27_0" lane="B27A27_0" pos="255.5"/>
    <e1Detector file="NUL" freq="60" friendlyPos="x" id="e1det_A26B26_0" lane="A26B26_0" pos="255.5"/>
    <e1Detector file="NUL" freq="60" friendlyPos="x" id="e1det_B25B26_0" lane="B25B26_0" pos="65.5"/>
    <e1Detector file="NUL" freq="60" friendlyPos="x" id="e1det_B27B26_0" lane="B27B26_0" pos="65.5"/>
    <e1Detector file="NUL" freq="60" friendlyPos="x" id="e1det_C26B26_0" lane="C26B26_0" pos="255.5"/>
    <e1Detector file="NUL" freq="60" friendlyPos="x" id="e1det_A27A28_0" lane="A27A28_0" pos="65.5"/>
    <e1Detector file="NUL" freq="60" friendlyPos="x" id="e1det_A29A28_0" lane="A29A28_0" pos="69.5"/>
    <e1Detector file="NUL" freq="60" friendlyPos="x" id="e1det_B28A28_0" lane="B28A28_0" pos="255.5"/>
    <e1Detector file="NUL" freq="60" friendlyPos="x" id="e1det_A27B27_0" lane="A27B27_0" pos="255.5"/>
    <e1Detector file="NUL" freq="60" friendlyPos="x" id="e1det_B26B27_0" lane="B26B27_0" pos="65.5"/>
    <e1Detector file="NUL" freq="60" friendlyPos="x" id="e1det_B28B27_0" lane="B28B27_0" pos="65.5"/>
    <e1Detector file="NUL" freq="60" friendlyPos="x" id="e1det_C27B27_0" lane="C27B27_0" pos="255.5"/>
    <e1Detector file="NUL" freq="60" friendlyPos="x" id="e1det_A28A29_0" lane="A28A29_0" pos="69.5"/>
    <e1Detector file="NUL" freq="60" friendlyPos="x" id="e1det_B29A29_0" lane="B29A29_0" pos="259.5"/>
    <e1Detector file="NUL" freq="60" friendlyPos="x" id="e1det_A28B28_0" lane="A28B28_0" pos="255.5"/>
    <e1Detector file="NUL" freq="60" friendlyPos="x" id="e1det_B27B28_0" lane="B27B28_0" pos="65.5"/>
    <e1Detector file="NUL" freq="60" friendlyPos="x" id="e1det_B29B28_0" lane="B29B28_0" pos="65.5"/>
    <e1Detector file="NUL" freq="60" friendlyPos="x" id="e1det_C28B28_0" lane="C28B28_0" pos="255.5"/>
    <e1Detector file="NUL" freq="60" friendlyPos="x" id="e1det_A29B29_0" lane="A29B29_0" pos="259.5"/>
    <e1Detector file="NUL" freq="60" friendlyPos="x" id="e1det_B28B29_0" lane="B28B29_0" pos="65.5"/>
    <e1Detector file="NUL" freq="60" friendlyPos="x" id="e1det_C29B29_0" lane="C29B29_0" pos="255.5"/>
    <e1Detector file="NUL" freq="60" friendlyPos="x" id="e1det_A2A3_0" lane="A2A3_0" pos="65.5"/>
    <e1Detector file="NUL" freq="60" friendlyPos="x" id="e1det_A4A3_0" lane="A4A3_0" pos="65.5"/>
    <e1Detector file="NUL" freq="60" friendlyPos="x" id="e1det_B3A3_0" lane="B3A3_0" pos="255.5"/>
    <e1Detector file="NUL" freq="60" friendlyPos="x" id="e1det_A2B2_0" lane="A2B2_0" pos="255.5"/>
    <e1Detector file="NUL" freq="60" friendlyPos="x" id="e1det_B1B2_0" lane="B1B2_0" pos="65.5"/>
    <e1Detector file="NUL" freq="60" friendlyPos="x" id="e1det_B3B2_0" lane="B3B2_0" pos="65.5"/>
    <e1Detector file="NUL" freq="60" friendlyPos="x" id="e1det_C2B2_0" lane="C2B2_0" pos="255.5"/>
    <e1Detector file="NUL" freq="60" friendlyPos="x" id="e1det_A3A4_0" lane="A3A4_0" pos="65.5"/>
    <e1Detector file="NUL" freq="60" friendlyPos="x" id="e1det_A5A4_0" lane="A5A4_0" pos="65.5"/>
    <e1Detector file="NUL" freq="60" friendlyPos="x" id="e1det_B4A4_0" lane="B4A4_0" pos="255.5"/>
    <e1Detector file="NUL" freq="60" friendlyPos="x" id="e1det_A3B3_0" lane="A3B3_0" pos="255.5"/>
    <e1Detector file="NUL" freq="60" friendlyPos="x" id="e1det_B2B3_0" lane="B2B3_0" pos="65.5"/>
    <e1Detector file="NUL" freq="60" friendlyPos="x" id="e1det_B4B3_0" lane="B4B3_0" pos="65.5"/>
    <e1Detector file="NUL" freq="60" friendlyPos="x" id="e1det_C3B3_0" lane="C3B3_0" pos="255.5"/>
    <e1Detector file="NUL" freq="60" friendlyPos="x" id="e1det_A4A5_0" lane="A4A5_0" pos="65.5"/>
    <e1Detector file="NUL" freq="60" friendlyPos="x" id="e1det_A6A5_0" lane="A6A5_0" pos="65.5"/>
    <e1Detector file="NUL" freq="60" friendlyPos="x" id="e1det_B5A5_0" lane="B5A5_0" pos="255.5"/>
    <e1Detector file="NUL" freq="60" friendlyPos="x" id="e1det_A4B4_0" lane="A4B4_0" pos="255.5"/>
    <e1Detector file="NUL" freq="60" friendlyPos="x" id="e1det_B3B4_0" lane="B3B4_0" pos="65.5"/>
    <e1Detector file="NUL" freq="60" friendlyPos="x" id="e1det_B5B4_0" lane="B5B4_0" pos="65.5"/>
    <e1Detector file="NUL" freq="60" friendlyPos="x" id="e1det_C4B4_0" lane="C4B4_0" pos="255.5"/>
    <e1Detector file="NUL" freq="60" friendlyPos="x" id="e1det_A5A6_0" lane="A5A6_0" pos="65.5"/>
    <e1Detector file="NUL" freq="60" friendlyPos="x" id="e1det_A7A6_0" lane="A7A6_0" pos="65.5"/>
    <e1Detector file="NUL" freq="60" friendlyPos="x" id="e1det_B6A6_0" lane="B6A6_0" pos="255.5"/>
    <e1Detector file="NUL" freq="60" friendlyPos="x" id="e1det_A5B5_0" lane="A5B5_0" pos="255.5"/>
    <e1Detector file="NUL" freq="60" friendlyPos="x" id="e1det_B4B5_0" lane="B4B5_0" pos="65.5"/>
    <e1Detector file="NUL" freq="60" friendlyPos="x" id="e1det_B6B5_0" lane="B6B5_0" pos="65.5"/>
    <e1Detector file="NUL" freq="60" friendlyPos="x" id="e1det_C5B5_0" lane="C5B5_0" pos="255.5"/>
    <e1Detector file="NUL" freq="60" friendlyPos="x" id="e1det_A6A7_0" lane="A6A7_0" pos="65.5"/>
    <e1Detector file="NUL" freq="60" friendlyPos="x" id="e1det_A8A7_0" lane="A8A7_0" pos="65.5"/>
    <e1Detector file="NUL" freq="60" friendlyPos="x" id="e1det_B7A7_0" lane="B7A7_0" pos="255.5"/>
    <e1Detector file="NUL" freq="60" friendlyPos="x" id="e1det_A6B6_0" lane="A6B6_0" pos="255.5"/>
    <e1Detector file="NUL" freq="60" friendlyPos="x" id="e1det_B5B6_0" lane="B5B6_0" pos="65.5"/>
    <e1Detector file="NUL" freq="60" friendlyPos="x" id="e1det_B7B6_0" lane="B7B6_0" pos="65.5"/>
    <e1Detector file="NUL" freq="60" friendlyPos="x" id="e1det_C6B6_0" lane="C6B6_0" pos="255.5"/>
    <e1Detector file="NUL" freq="60" friendlyPos="x" id="e1det_A7A8_0" lane="A7A8_0" pos="65.5"/>
    <e1Detector file="NUL" freq="60" friendlyPos="x" id="e1det_A9A8_0" lane="A9A8_0" pos="65.5"/>
    <e1Detector file="NUL" freq="60" friendlyPos="x" id="e1det_B8A8_0" lane="B8A8_0" pos="255.5"/>
    <e1Detector file="NUL" freq="60" friendlyPos="x" id="e1det_A7B7_0" lane="A7B7_0" pos="255.5"/>
    <e1Detector file="NUL" freq="60" friendlyPos="x" id="e1det_B6B7_0" lane="B6B7_0" pos="65.5"/>
    <e1Detector file="NUL" freq="60" friendlyPos="x" id="e1det_B8B7_0" lane="B8B7_0" pos="65.5"/>
    <e1Detector file="NUL" freq="60" friendlyPos="x" id="e1det_C7B7_0" lane="C7B7_0" pos="255.5"/>
    <e1Detector file="NUL" freq="60" friendlyPos="x" id="e1det_A8B8_0" lane="A8B8_0" pos="255.5"/>
    <e1Detector file="NUL" freq="60" friendlyPos="x" id="e1det_B7B8_0" lane="B7B8_0" pos="65.5"/>
    <e1Detector file="NUL" freq="60" friendlyPos="x" id="e1det_B9B8_0" lane="B9B8_0" pos="65.5"/>
    <e1Detector file="NUL" freq="60" friendlyPos="x" id="e1det_C8B8_0" lane="C8B8_0" pos="255.5"/>
    <e1Detector file="NUL" freq="60" friendlyPos="x" id="e1det_A9B9_0" lane="A9B9_0" pos="255.5"/>
    <e1Detector file="NUL" freq="60" friendlyPos="x" id="e1det_B10B9_0" lane="B10B9_0" pos="65.5"/>
    <e1Detector file="NUL" freq="60" friendlyPos="x" id="e1det_B8B9_0" lane="B8B9_0" pos="65.5"/>
    <e1Detector file="NUL" freq="60" friendlyPos="x" id="e1det_C9B9_0" lane="C9B9_0" pos="255.5"/>
    <e1Detector file="NUL" freq="60" friendlyPos="x" id="e1det_B0C0_0" lane="B0C0_0" pos="255.5"/>
    <e1Detector file="NUL" freq="60" friendlyPos="x" id="e1det_C1C0_0" lane="C1C0_0" pos="65.5"/>
    <e1Detector file="NUL" freq="60" friendlyPos="x" id="e1det_D0C0_0" lane="D0C0_0" pos="255.5"/>
    <e1Detector file="NUL" freq="60" friendlyPos="x" id="e1det_B10C10_0" lane="B10C10_0" pos="255.5"/>
    <e1Detector file="NUL" freq="60" friendlyPos="x" id="e1det_C11C10_0" lane="C11C10_0" pos="65.5"/>
    <e1Detector file="NUL" freq="60" friendlyPos="x" id="e1det_C9C10_0" lane="C9C10_0" pos="65.5"/>
    <e1Detector file="NUL" freq="60" friendlyPos="x" id="e1det_D10C10_0" lane="D10C10_0" pos="255.5"/>
    <e1Detector file="NUL" freq="60" friendlyPos="x" id="e1det_B11C11_0" lane="B11C11_0" pos="255.5"/>
    <e1Detector file="NUL" freq="60" friendlyPos="x" id="e1det_C10C11_0" lane="C10C11_0" pos="65.5"/>
    <e1Detector file="NUL" freq="60" friendlyPos="x" id="e1det_C12C11_0" lane="C12C11_0" pos="65.5"/>
    <e1Detector file="NUL" freq="60" friendlyPos="x" id="e1det_D11C11_0" lane="D11C11_0" pos="255.5"/>
    <e1Detector file="NUL" freq="60" friendlyPos="x" id="e1det_B12C12_0" lane="B12C12_0" pos="255.5"/>
    <e1Detector file="NUL" freq="60" friendlyPos="x" id="e1det_C11C12_0" lane="C11C12_0" pos="65.5"/>
    <e1Detector file="NUL" freq="60" friendlyPos="x" id="e1det_C13C12_0" lane="C13C12_0" pos="65.5"/>
    <e1Detector file="NUL" freq="60" friendlyPos="x" id="e1det_D12C12_0" lane="D12C12_0" pos="255.5"/>
    <e1Detector file="NUL" freq="60" friendlyPos="x" id="e1det_B13C13_0" lane="B13C13_0" pos="255.5"/>
    <e1Detector file="NUL" freq="60" friendlyPos="x" id="e1det_C12C13_0" lane="C12C13_0" pos="65.5"/>
    <e1Detector file="NUL" freq="60" friendlyPos="x" id="e1det_C14C13_0" lane="C14C13_0" pos="65.5"/>
    <e1Detector file="NUL" freq="60" friendlyPos="x" id="e1det_D13C13_0" lane="D13C13_0" pos="255.5"/>
    <e1Detector file="NUL" freq="60" friendlyPos="x" id="e1det_B14C14_0" lane="B14C14_0" pos="255.5"/>
    <e1Detector file="NUL" freq="60" friendlyPos="x" id="e1det_C13C14_0" lane="C13C14_0" pos="65.5"/>
    <e1Detector file="NUL" freq="60" friendlyPos="x" id="e1det_C15C14_0" lane="C15C14_0" pos="65.5"/>
    <e1Detector file="NUL" freq="60" friendlyPos="x" id="e1det_D14C14_0" lane="D14C14_0" pos="255.5"/>
    <e1Detector file="NUL" freq="60" friendlyPos="x" id="e1det_B15C15_0" lane="B15C15_0" pos="255.5"/>
    <e1Detector file="NUL" freq="60" friendlyPos="x" id="e1det_C14C15_0" lane="C14C15_0" pos="65.5"/>
    <e1Detector file="NUL" freq="60" friendlyPos="x" id="e1det_C16C15_0" lane="C16C15_0" pos="65.5"/>
    <e1Detector file="NUL" freq="60" friendlyPos="x" id="e1det_D15C15_0" lane="D15C15_0" pos="255.5"/>
    <e1Detector file="NUL" freq="60" friendlyPos="x" id="e1det_B16C16_0" lane="B16C16_0" pos="255.5"/>
    <e1Detector file="NUL" freq="60" friendlyPos="x" id="e1det_C15C16_0" lane="C15C16_0" pos="65.5"/>
    <e1Detector file="NUL" freq="60" friendlyPos="x" id="e1det_C17C16_0" lane="C17C16_0" pos="65.5"/>
    <e1Detector file="NUL" freq="60" friendlyPos="x" id="e1det_D16C16_0" lane="D16C16_0" pos="255.5"/>
    <e1Detector file="NUL" freq="60" friendlyPos="x" id="e1det_B17C17_0" lane="B17C17_0" pos="255.5"/>
    <e1Detector file="NUL" freq="60" friendlyPos="x" id="e1det_C16C17_0" lane="C16C17_0" pos="65.5"/>
    <e1Detector file="NUL" freq="60" friendlyPos="x" id="e1det_C18C17_0" lane="C18C17_0" pos="65.5"/>
    <e1Detector file="NUL" freq="60" friendlyPos="x" id="e1det_D17C17_0" lane="D17C17_0" pos="255.5"/>
    <e1Detector file="NUL" freq="60" friendlyPos="x" id="e1det_B18C18_0" lane="B18C18_0" pos="255.5"/>
    <e1Detector file="NUL" freq="60" friendlyPos="x" id="e1det_C17C18_0" lane="C17C18_0" pos="65.5"/>
    <e1Detector file="NUL" freq="60" friendlyPos="x" id="e1det_C19C18_0" lane="C19C18_0" pos="65.5"/>
    <e1Detector file="NUL" freq="60" friendlyPos="x" id="e1det_D18C18_0" lane="D18C18_0" pos="255.5"/>
    <e1Detector file="NUL" freq="60" friendlyPos="x" id="e1det_B19C19_0" lane="B19C19_0" pos="255.5"/>
    <e1Detector file="NUL" freq="60" friendlyPos="x" id="e1det_C18C19_0" lane="C18C19_0" pos="65.5"/>
    <e1Detector file="NUL" freq="60" friendlyPos="x" id="e1det_C20C19_0" lane="C20C19_0" pos="65.5"/>
    <e1Detector file="NUL" freq="60" friendlyPos="x" id="e1det_D19C19_0" lane="D19C19_0" pos="255.5"/>
    <e1Detector file="NUL" freq="60" friendlyPos="x" id="e1det_B1C1_0" lane="B1C1_0" pos="255.5"/>
    <e1Detector file="NUL" freq="60" friendlyPos="x" id="e1det_C0C1_0" lane="C0C1_0" pos="65.5"/>
    <e1Detector file="NUL" freq="60" friendlyPos="x" id="e1det_C2C1_0" lane="C2C1_0" pos="65.5"/>
    <e1Detector file="NUL" freq="60" friendlyPos="x" id="e1det_D1C1_0" lane="D1C1_0" pos="255.5"/>
    <e1Detector file="NUL" freq="60" friendlyPos="x" id="e1det_B20C20_0" lane="B20C20_0" pos="255.5"/>
    <e1Detector file="NUL" freq="60" friendlyPos="x" id="e1det_C19C20_0" lane="C19C20_0" pos="65.5"/>
    <e1Detector file="NUL" freq="60" friendlyPos="x" id="e1det_C21C20_0" lane="C21C20_0" pos="65.5"/>
    <e1Detector file="NUL" freq="60" friendlyPos="x" id="e1det_D20C20_0" lane="D20C20_0" pos="255.5"/>
    <e1Detector file="NUL" freq="60" friendlyPos="x" id="e1det_B21C21_0" lane="B21C21_0" pos="255.5"/>
    <e1Detector file="NUL" freq="60" friendlyPos="x" id="e1det_C20C21_0" lane="C20C21_0" pos="65.5"/>
    <e1Detector file="NUL" freq="60" friendlyPos="x" id="e1det_C22C21_0" lane="C22C21_0" pos="65.5"/>
    <e1Detector file="NUL" freq="60" friendlyPos="x" id="e1det_D21C21_0" lane="D21C21_0" pos="255.5"/>
    <e1Detector file="NUL" freq="60" friendlyPos="x" id="e1det_B22C22_0" lane="B22C22_0" pos="255.5"/>
    <e1Detector file="NUL" freq="60" friendlyPos="x" id="e1det_C21C22_0" lane="C21C22_0" pos="65.5"/>
    <e1Detector file="NUL" freq="60" friendlyPos="x" id="e1det_C23C22_0" lane="C23C22_0" pos="65.5"/>
    <e1Detector file="NUL" freq="60" friendlyPos="x" id="e1det_D22C22_0" lane="D22C22_0" pos="255.5"/>
    <e1Detector file="NUL" freq="60" friendlyPos="x" id="e1det_B23C23_0" lane="B23C23_0" pos="255.5"/>
    <e1Detector file="NUL" freq="60" friendlyPos="x" id="e1det_C22C23_0" lane="C22C23_0" pos="65.5"/>
    <e1Detector file="NUL" freq="60" friendlyPos="x" id="e1det_C24C23_0" lane="C24C23_0" pos="65.5"/>
    <e1Detector file="NUL" freq="60" friendlyPos="x" id="e1det_D23C23_0" lane="D23C23_0" pos="255.5"/>
    <e1Detector file="NUL" freq="60" friendlyPos="x" id="e1det_B24C24_0" lane="B24C24_0" pos="255.5"/>
    <e1Detector file="NUL" freq="60" friendlyPos="x" id="e1det_C23C24_0" lane="C23C24_0" pos="65.5"/>
    <e1Detector file="NUL" freq="60" friendlyPos="x" id="e1det_C25C24_0" lane="C25C24_0" pos="65.5"/>
    <e1Detector file="NUL" freq="60" friendlyPos="x" id="e1det_D24C24_0" lane="D24C24_0" pos="255.5"/>
    <e1Detector file="NUL" freq="60" friendlyPos="x" id="e1det_B25C25_0" lane="B25C25_0" pos="255.5"/>
    <e1Detector file="NUL" freq="60" friendlyPos="x" id="e1det_C24C25_0" lane="C24C25_0" pos="65.5"/>
    <e1Detector file="NUL" freq="60" friendlyPos="x" id="e1det_C26C25_0" lane="C26C25_0" pos="65.5"/>
    <e1Detector file="NUL" freq="60" friendlyPos="x" id="e1det_D25C25_0" lane="D25C25_0" pos="255.5"/>
    <e1Detector file="NUL" freq="60" friendlyPos="x" id="e1det_B26C26_0" lane="B26C26_0" pos="255.5"/>
    <e1Detector file="NUL" freq="60" friendlyPos="x" id="e1det_C25C26_0" lane="C25C26_0" pos="65.5"/>
    <e1Detector file="NUL" freq="60" friendlyPos="x" id="e1det_C27C26_0" lane="C27C26_0" pos="65.5"/>
    <e1Detector file="NUL" freq="60" friendlyPos="x" id="e1det_D26C26_0" lane="D26C26_0" pos="255.5"/>
    <e1Detector file="NUL" freq="60" friendlyPos="x" id="e1det_B27C27_0" lane="B27C27_0" pos="255.5"/>
    <e1Detector file="NUL" freq="60" friendlyPos="x" id="e1det_C26C27_0" lane="C26C27_0" pos="65.5"/>
    <e1Detector file="NUL" freq="60" friendlyPos="x" id="e1det_C28C27_0" lane="C28C27_0" pos="65.5"/>
    <e1Detector file="NUL" freq="60" friendlyPos="x" id="e1det_D27C27_0" lane="D27C27_0" pos="255.5"/>
    <e1Detector file="NUL" freq="60" friendlyPos="x" id="e1det_B28C28_0" lane="B28C28_0" pos="255.5"/>
    <e1Detector file="NUL" freq="60" friendlyPos="x" id="e1det_C27C28_0" lane="C27C28_0" pos="65.5"/>
    <e1Detector file="NUL" freq="60" friendlyPos="x" id="e1det_C29C28_0" lane="C29C28_0" pos="65.5"/>
    <e1Detector file="NUL" freq="60" friendlyPos="x" id="e1det_D28C28_0" lane="D28C28_0" pos="255.5"/>
    <e1Detector file="NUL" freq="60" friendlyPos="x" id="e1det_B29C29_0" lane="B29C29_0" pos="255.5"/>
    <e1Detector file="NUL" freq="60" friendlyPos="x" id="e1det_C28C29_0" lane="C28C29_0" pos="65.5"/>
    <e1Detector file="NUL" freq="60" friendlyPos="x" id="e1det_D29C29_0" lane="D29C29_0" pos="255.5"/>
    <e1Detector file="NUL" freq="60" friendlyPos="x" id="e1det_B2C2_0" lane="B2C2_0" pos="255.5"/>
    <e1Detector file="NUL" freq="60" friendlyPos="x" id="e1det_C1C2_0" lane="C1C2_0" pos="65.5"/>