<additional xmlns:xsi="http://www.w3.org/2001/XMLSchema-instance" xsi:noNamespaceSchemaLocation="http://sumo.dlr.de/xsd/additional_file.xsd">
    <e1Detector file="NUL" freq="1" friendlyPos="x" id="e1det_A0A1_0" lane="A0A1_0" pos="83.10000000000001"/>
    <e1Detector file="NUL" freq="1" friendlyPos="x" id="e1det_A0A1_1" lane="A0A1_1" pos="83.10000000000001"/>
    <e1Detector file="NUL" freq="1" friendlyPos="x" id="e1det_A2A1_0" lane="A2A1_0" pos="79.10000000000001"/>
    <e1Detector file="NUL" freq="1" friendlyPos="x" id="e1det_A2A1_1" lane="A2A1_1" pos="79.10000000000001"/>
    <e1Detector file="NUL" freq="1" friendlyPos="x" id="e1det_B1A1_0" lane="B1A1_0" pos="79.10000000000001"/>
    <e1Detector file="NUL" freq="1" friendlyPos="x" id="e1det_B1A1_1" lane="B1A1_1" pos="79.10000000000001"/>
    <e1Detector file="NUL" freq="1" friendlyPos="x" id="e1det_A0B0_0" lane="A0B0_0" pos="83.10000000000001"/>
    <e1Detector file="NUL" freq="1" friendlyPos="x" id="e1det_A0B0_1" lane="A0B0_1" pos="83.10000000000001"/>
    <e1Detector file="NUL" freq="1" friendlyPos="x" id="e1det_B1B0_0" lane="B1B0_0" pos="79.10000000000001"/>
    <e1Detector file="NUL" freq="1" friendlyPos="x" id="e1det_B1B0_1" lane="B1B0_1" pos="79.10000000000001"/>
    <e1Detector file="NUL" freq="1" friendlyPos="x" id="e1det_C0B0_0" lane="C0B0_0" pos="79.10000000000001"/>
    <e1Detector file="NUL" freq="1" friendlyPos="x" id="e1det_C0B0_1" lane="C0B0_1" pos="79.10000000000001"/>
    <e1Detector file="NUL" freq="1" friendlyPos="x" id="e1det_A1A0_0" lane="A1A0_0" pos="83.10000000000001"/>
    <e1Detector file="NUL" freq="1" friendlyPos="x" id="e1det_A1A0_1" lane="A1A0_1" pos="83.10000000000001"/>
    <e1Detector file="NUL" freq="1" friendlyPos="x" id="e1det_B0A0_0" lane="B0A0_0" pos="83.10000000000001"/>
    <e1Detector file="NUL" freq="1" friendlyPos="x" id="e1det_B0A0_1" lane="B0A0_1" pos="83.10000000000001"/>
    <e1Detector file="NUL" freq="1" friendlyPos="x" id="e1det_A1A2_0" lane="A1A2_0" pos="79.10000000000001"/>
    <e1Detector file="NUL" freq="1" friendlyPos="x" id="e1det_A1A2_1" lane="A1A2_1" pos="79.10000000000001"/>
    <e1Detector file="NUL" freq="1" friendlyPos="x" id="e1det_A3A2_0" lane="A3A2_0" pos="83.10000000000001"/>
    <e1Detector file="NUL" freq="1" friendlyPos="x" id="e1det_A3A2_1" lane="A3A2_1" pos="83.10000000000001"/>
    <e1Detector file="NUL" freq="1" friendlyPos="x" id="e1det_B2A2_0" lane="B2A2_0" pos="79.10000000000001"/>
    <e1Detector file="NUL" freq="1" friendlyPos="x" id="e1det_B2A2_1" lane="B2A2_1" pos="79.10000000000001"/>
    <e1Detector file="NUL" freq="1" friendlyPos="x" id="e1det_A1B1_0" lane="A1B1_0" pos="79.10000000000001"/>
    <e1Detector file="NUL" freq="1" friendlyPos="x" id="e1det_A1B1_1" lane="A1B1_1" pos="79.10000000000001"/>
    <e1Detector file="NUL" freq="1" friendlyPos="x" id="e1det_B0B1_0" lane="B0B1_0" pos="79.10000000000001"/>
    <e1Detector file="NUL" freq="1" friendlyPos="x" id="e1det_B0B1_1" lane="B0B1_1" pos="79.10000000000001"/>
    <e1Detector file="NUL" freq="1" friendlyPos="x" id="e1det_B2B1_0" lane="B2B1_0" pos="79.10000000000001"/>
    <e1Detector file="NUL" freq="1" friendlyPos="x" id="e1det_B2B1_1" lane="B2B1_1" pos="79.10000000000001"/>
    <e1Detector file="NUL" freq="1" friendlyPos="x" id="e1det_C1B1_0" lane="C1B1_0" pos="79.10000000000001"/>
    <e1Detector file="NUL" freq="1" friendlyPos="x" id="e1det_C1B1_1" lane="C1B1_1" pos="79.10000000000001"/>
    <e1Detector file="NUL" freq="1" friendlyPos="x" id="e1det_A2A3_0" lane="A2A3_0" pos="83.10000000000001"/>
    <e1Detector file="NUL" freq="1" friendlyPos="x" id="e1det_A2A3_1" lane="A2A3_1" pos="83.10000000000001"/>
    <e1Detector file="NUL" freq="1" friendlyPos="x" id="e1det_B3A3_0" lane="B3A3_0" pos="83.10000000000001"/>
    <e1Detector file="NUL" freq="1" friendlyPos="x" id="e1det_B3A3_1" lane="B3A3_1" pos="83.10000000000001"/>
    <e1Detector file="NUL" freq="1" friendlyPos="x" id="e1det_A2B2_0" lane="A2B2_0" pos="79.10000000000001"/>
    <e1Detector file="NUL" freq="1" friendlyPos="x" id="e1det_A2B2_1" lane="A2B2_1" pos="79.10000000000001"/>
    <e1Detector file="NUL" freq="1" friendlyPos="x" id="e1det_B1B2_0" lane="B1B2_0" pos="79.10000000000001"/>
    <e1Detector file="NUL" freq="1" friendlyPos="x" id="e1det_B1B2_1" lane="B1B2_1" pos="79.10000000000001"/>
    <e1Detector file="NUL" freq="1" friendlyPos="x" id="e1det_B3B2_0" lane="B3B2_0" pos="79.10000000000001"/>
    <e1Detector file="NUL" freq="1" friendlyPos="x" id="e1det_B3B2_1" lane="B3B2_1" pos="79.10000000000001"/>
    <e1Detector file="NUL" freq="1" friendlyPos="x" id="e1det_C2B2_0" lane="C2B2_0" pos="79.10000000000001"/>
    <e1Detector file="NUL" freq="1" friendlyPos="x" id="e1det_C2B2_1" lane="C2B2_1" pos="79.10000000000001"/>
    <e1Detector file="NUL" freq="1" friendlyPos="x" id="e1det_A3B3_0" lane="A3B3_0" pos="83.10000000000001"/>
    <e1Detector file="NUL" freq="1" friendlyPos="x" id="e1det_A3B3_1" lane="A3B3_1" pos="83.10000000000001"/>
    <e1Detector file="NUL" freq="1" friendlyPos="x" id="e1det_B2B3_0" lane="B2B3_0" pos="79.10000000000001"/>
    <e1Detector file="NUL" freq="1" friendlyPos="x" id="e1det_B2B3_1" lane="B2B3_1" pos="79.10000000000001"/>
    <e1Detector file="NUL" freq="1" friendlyPos="x" id="e1det_C3B3_0" lane="C3B3_0" pos="79.10000000000001"/>
    <e1Detector file="NUL" freq="1" friendlyPos="x" id="e1det_C3B3_1" lane="C3B3_1" pos="79.10000000000001"/>
    <e1Detector file="NUL" freq="1" friendlyPos="x" id="e1det_B0C0_0" lane="B0C0_0" pos="79.10000000000001"/>
    <e1Detector file="NUL" freq="1" friendlyPos="x" id="e1det_B0C0_1" lane="B0C0_1" pos="79.10000000000001"/>
    <e1Detector file="NUL" freq="1" friendlyPos="x" id="e1det_C1C0_0" lane="C1C0_0" pos="79.10000000000001"/>
    <e1Detector file="NUL" freq="1" friendlyPos="x" id="e1det_C1C0_1" lane="C1C0_1" pos="79.10000000000001"/>
    <e1Detector file="NUL" freq="1" friendlyPos="x" id="e1det_D0C0_0" lane="D0C0_0" pos="83.10000000000001"/>
    <e1Detector file="NUL" freq="1" friendlyPos="x" id="e1det_D0C0_1" lane="D0C0_1" pos="83.10000000000001"/>
    <e1Detector file="NUL" freq="1" friendlyPos="x" id="e1det_B1C1_0" lane="B1C1_0" pos="79.10000000000001"/>
    <e1Detector file="NUL" freq="1" friendlyPos="x" id="e1det_B1C1_1" lane="B1C1_1" pos="79.10000000000001"/>
    <e1Detector file="NUL" freq="1" friendlyPos="x" id="e1det_C0C1_0" lane="C0C1_0" pos="79.10000000000001"/>
    <e1Detector file="NUL" freq="1" friendlyPos="x" id="e1det_C0C1_1" lane="C0C1_1" pos="79.10000000000001"/>
    <e1Detector file="NUL" freq="1" friendlyPos="x" id="e1det_C2C1_0" lane="C2C1_0" pos="79.10000000000001"/>
    <e1Detector file="NUL" freq="1" friendlyPos="x" id="e1det_C2C1_1" lane="C2C1_1" pos="79.10000000000001"/>
    <e1Detector file="NUL" freq="1" friendlyPos="x" id="e1det_D1C1_0" lane="D1C1_0" pos="79.10000000000001"/>
    <e1Detector file="NUL" freq="1" friendlyPos="x" id="e1det_D1C1_1" lane="D1C1_1" pos="79.10000000000001"/>
    <e1Detector file="NUL" freq="1" friendlyPos="x" id="e1det_B2C2_0" lane="B2C2_0" pos="79.10000000000001"/>
    <e1Detector file="NUL" freq="1" friendlyPos="x" id="e1det_B2C2_1" lane="B2C2_1" pos="79.10000000000001"/>
    <e1Detector file="NUL" freq="1" friendlyPos="x" id="e1det_C1C2_0" lane="C1C2_0" pos="79.10000000000001"/>
    <e1Detector file="NUL" freq="1" friendlyPos="x" id="e1det_C1C2_1" lane="C1C2_1" pos="79.10000000000001"/>
    <e1Detector file="NUL" freq="1" friendlyPos="x" id="e1det_C3C2_0" lane="C3C2_0" pos="79.10000000000001"/>
    <e1Detector file="NUL" freq="1" friendlyPos="x" id="e1det_C3C2_1" lane="C3C2_1" pos="79.10000000000001"/>
    <e1Detector file="NUL" freq="1" friendlyPos="x" id="e1det_D2C2_0" lane="D2C2_0" pos="79.10000000000001"/>
    <e1Detector file="NUL" freq="1" friendlyPos="x" id="e1det_D2C2_1" lane="D2C2_1" pos="79.10000000000001"/>
    <e1Detector file="NUL" freq="1" friendlyPos="x" id="e1det_B3C3_0" lane="B3C3_0" pos="79.10000000000001"/>
    <e1Detector file="NUL" freq="1" friendlyPos="x" id="e1det_B3C3_1" lane="B3C3_1" pos="79.10000000000001"/>
    <e1Detector file="NUL" freq="1" friendlyPos="x" id="e1det_C2C3_0" lane="C2C3_0" pos="79.10000000000001"/>
    <e1Detector file="NUL" freq="1" friendlyPos="x" id="e1det_C2C3_1" lane="C2C3_1" pos="79.10000000000001"/>
    <e1Detector file="NUL" freq="1" friendlyPos="x" id="e1det_D3C3_0" lane="D3C3_0" pos="83.10000000000001"/>
    <e1Detector file="NUL" freq="1" friendlyPos="x" id="e1det_D3C3_1" lane="D3C3_1" pos="83.10000000000001"/>
    <e1Detector file="NUL" freq="1" friendlyPos="x" id="e1det_C0D0_0" lane="C0D0_0" pos="83.10000000000001"/>
    <e1Detector file="NUL" freq="1" friendlyPos="x" id="e1det_C0D0_1" lane="C0D0_1" pos="83.10000000000001"/>
    <e1Detector file="NUL" freq="1" friendlyPos="x" id="e1det_D1D0_0" lane="D1D0_0" pos="83.10000000000001"/>
    <e1Detector file="NUL" freq="1" friendlyPos="x" id="e1det_D1D0_1" lane="D1D0_1" pos="83.10000000000001"/>
    <e1Detector file="NUL" freq="1" friendlyPos="x" id="e1det_C1D1_0" lane="C1D1_0" pos="79.10000000000001"/>
    <e1Detector file="NUL" freq="1" friendlyPos="x" id="e1det_C1D1_1" lane="C1D1_1" pos="79.10000000000001"/>
    <e1Detector file="NUL" freq="1" friendlyPos="x" id="e1det_D0D1_0" lane="D0D1_0" pos="83.10000000000001"/>
    <e1Detector file="NUL" freq="1" friendlyPos="x" id="e1det_D0D1_1" lane="D0D1_1" pos="83.10000000000001"/>
    <e1Detector file="NUL" freq="1" friendlyPos="x" id="e1det_D2D1_0" lane="D2D1_0" pos="79.10000000000001"/>
    <e1Detector file="NUL" freq="1" friendlyPos="x" id="e1det_D2D1_1" lane="D2D1_1" pos="79.10000000000001"/>
    <e1Detector file="NUL" freq="1" friendlyPos="x" id="e1det_C2D2_0" lane="C2D2_0" pos="79.10000000000001"/>
    <e1Detector file="NUL" freq="1" friendlyPos="x" id="e1det_C2D2_1" lane="C2D2_1" pos="79.10000000000001"/>
    <e1Detector file="NUL" freq="1" friendlyPos="x" id="e1det_D1D2_0" lane="D1D2_0" pos="79.10000000000001"/>
    <e1Detector file="NUL" freq="1" friendlyPos="x" id="e1det_D1D2_1" lane="D1D2_1" pos="79.10000000000001"/>
    <e1Detector file="NUL" freq="1" friendlyPos="x" id="e1det_D3D2_0" lane="D3D2_0" pos="83.10000000000001"/>
    <e1Detector file="NUL" freq="1" friendlyPos="x" id="e1det_D3D2_1" lane="D3D2_1" pos="83.10000000000001"/>
    <e1Detector file="NUL" freq="1" friendlyPos="x" id="e1det_C3D3_0" lane="C3D3_0" pos="83.10000000000001"/>
    <e1Detector file="NUL" freq="1" friendlyPos="x" id="e1det_C3D3_1" lane="C3D3_1" pos="83.10000000000001"/>
    <e1Detector file="NUL" freq="1" friendlyPos="x" id="e1det_D2D3_0" lane="D2D3_0" pos="83.10000000000001"/>
    <e1Detector file="NUL" freq="1" friendlyPos="x" id="e1det_D2D3_1" lane="D2D3_1" pos="83.10000000000001"/>
</additional>
