<additional xmlns:xsi="http://www.w3.org/2001/XMLSchema-instance" xsi:noNamespaceSchemaLocation="http://sumo.dlr.de/xsd/additional_file.xsd">
    <e1Detector file="NUL" freq="60" friendlyPos="x" id="e1det_B10B1_0" lane="B10B1_0" pos="51.24"/>
    <e1Detector file="NUL" freq="60" friendlyPos="x" id="e1det_B2B1_0" lane="B2B1_0" pos="51.24"/>
    <e1Detector file="NUL" freq="60" friendlyPos="x" id="e1det_C1B1_0" lane="C1B1_0" pos="86.26"/>
    <e1Detector file="NUL" freq="60" friendlyPos="x" id="e1det_B10B9_0" lane="B10B9_0" pos="51.24"/>
    <e1Detector file="NUL" freq="60" friendlyPos="x" id="e1det_B8B9_0" lane="B8B9_0" pos="51.24"/>
    <e1Detector file="NUL" freq="60" friendlyPos="x" id="e1det_C9B9_0" lane="C9B9_0" pos="86.26"/>
    <e1Detector file="NUL" freq="60" friendlyPos="x" id="e1det_B10C10_0" lane="B10C10_0" pos="86.26"/>
    <e1Detector file="NUL" freq="60" friendlyPos="x" id="e1det_C1C10_0" lane="C1C10_0" pos="106.7"/>
    <e1Detector file="NUL" freq="60" friendlyPos="x" id="e1det_C9C10_0" lane="C9C10_0" pos="106.7"/>
    <e1Detector file="NUL" freq="60" friendlyPos="x" id="e1det_D10C10_0" lane="D10C10_0" pos="85.17"/>
    <e1Detector file="NUL" freq="60" friendlyPos="x" id="e1det_B1B10_0" lane="B1B10_0" pos="51.24"/>
    <e1Detector file="NUL" freq="60" friendlyPos="x" id="e1det_B9B10_0" lane="B9B10_0" pos="51.24"/>
    <e1Detector file="NUL" freq="60" friendlyPos="x" id="e1det_C10B10_0" lane="C10B10_0" pos="86.26"/>
    <e1Detector file="NUL" freq="60" friendlyPos="x" id="e1det_B1B2_0" lane="B1B2_0" pos="51.24"/>
    <e1Detector file="NUL" freq="60" friendlyPos="x" id="e1det_B3B2_0" lane="B3B2_0" pos="51.24"/>
    <e1Detector file="NUL" freq="60" friendlyPos="x" id="e1det_C2B2_0" lane="C2B2_0" pos="86.26"/>
    <e1Detector file="NUL" freq="60" friendlyPos="x" id="e1det_B1C1_0" lane="B1C1_0" pos="86.26"/>
    <e1Detector file="NUL" freq="60" friendlyPos="x" id="e1det_C10C1_0" lane="C10C1_0" pos="106.7"/>
    <e1Detector file="NUL" freq="60" friendlyPos="x" id="e1det_C2C1_0" lane="C2C1_0" pos="106.7"/>
    <e1Detector file="NUL" freq="60" friendlyPos="x" id="e1det_D1C1_0" lane="D1C1_0" pos="85.17"/>
    <e1Detector file="NUL" freq="60" friendlyPos="x" id="e1det_B2B3_0" lane="B2B3_0" pos="51.24"/>
    <e1Detector file="NUL" freq="60" friendlyPos="x" id="e1det_B4B3_0" lane="B4B3_0" pos="51.24"/>
    <e1Detector file="NUL" freq="60" friendlyPos="x" id="e1det_C3B3_0" lane="C3B3_0" pos="86.26"/>
    <e1Detector file="NUL" freq="60" friendlyPos="x" id="e1det_B2C2_0" lane="B2C2_0" pos="86.26"/>
    <e1Detector file="NUL" freq="60" friendlyPos="x" id="e1det_C1C2_0" lane="C1C2_0" pos="106.7"/>
    <e1Detector file="NUL" freq="60" friendlyPos="x" id="e1det_C3C2_0" lane="C3C2_0" pos="106.7"/>
    <e1Detector file="NUL" freq="60" friendlyPos="x" id="e1det_D2C2_0" lane="D2C2_0" pos="85.17"/>
    <e1Detector file="NUL" freq="60" friendlyPos="x" id="e1det_B3B4_0" lane="B3B4_0" pos="51.24"/>
    <e1Detector file="NUL" freq="60" friendlyPos="x" id="e1det_B5B4_0" lane="B5B4_0" pos="51.24"/>
    <e1Detector file="NUL" freq="60" friendlyPos="x" id="e1det_C4B4_0" lane="C4B4_0" pos="86.26"/>
    <e1Detector file="NUL" freq="60" friendlyPos="x" id="e1det_B3C3_0" lane="B3C3_0" pos="86.26"/>
    <e1Detector file="NUL" freq="60" friendlyPos="x" id="e1det_C2C3_0" lane="C2C3_0" pos="106.7"/>
    <e1Detector file="NUL" freq="60" friendlyPos="x" id="e1det_C4C3_0" lane="C4C3_0" pos="106.7"/>
    <e1Detector file="NUL" freq="60" friendlyPos="x" id="e1det_D3C3_0" lane="D3C3_0" pos="85.17"/>
    <e1Detector file="NUL" freq="60" friendlyPos="x" id="e1det_B4B5_0" lane="B4B5_0" pos="51.24"/>
    <e1Detector file="NUL" freq="60" friendlyPos="x" id="e1det_B6B5_0" lane="B6B5_0" pos="51.24"/>
    <e1Detector file="NUL" freq="60" friendlyPos="x" id="e1det_C5B5_0" lane="C5B5_0" pos="86.26"/>
    <e1Detector file="NUL" freq="60" friendlyPos="x" id="e1det_B4C4_0" lane="B4C4_0" pos="86.26"/>
    <e1Detector file="NUL" freq="60" friendlyPos="x" id="e1det_C3C4_0" lane="C3C4_0" pos="106.7"/>
    <e1Detector file="NUL" freq="60" friendlyPos="x" id="e1det_C5C4_0" lane="C5C4_0" pos="106.7"/>
    <e1Detector file="NUL" freq="60" friendlyPos="x" id="e1det_D4C4_0" lane="D4C4_0" pos="85.17"/>
    <e1Detector file="NUL" freq="60" friendlyPos="x" id="e1det_B5B6_0" lane="B5B6_0" pos="51.24"/>
    <e1Detector file="NUL" freq="60" friendlyPos="x" id="e1det_B7B6_0" lane="B7B6_0" pos="51.24"/>
    <e1Detector file="NUL" freq="60" friendlyPos="x" id="e1det_C6B6_0" lane="C6B6_0" pos="86.26"/>
    <e1Detector file="NUL" freq="60" friendlyPos="x" id="e1det_B5C5_0" lane="B5C5_0" pos="86.26"/>
    <e1Detector file="NUL" freq="60" friendlyPos="x" id="e1det_C4C5_0" lane="C4C5_0" pos="106.7"/>
    <e1Detector file="NUL" freq="60" friendlyPos="x" id="e1det_C6C5_0" lane="C6C5_0" pos="106.7"/>
    <e1Detector file="NUL" freq="60" friendlyPos="x" id="e1det_D5C5_0" lane="D5C5_0" pos="85.17"/>
    <e1Detector file="NUL" freq="60" friendlyPos="x" id="e1det_B6B7_0" lane="B6B7_0" pos="51.24"/>
    <e1Detector file="NUL" freq="60" friendlyPos="x" id="e1det_B8B7_0" lane="B8B7_0" pos="51.24"/>
    <e1Detector file="NUL" freq="60" friendlyPos="x" id="e1det_C7B7_0" lane="C7B7_0" pos="86.26"/>
    <e1Detector file="NUL" freq="60" friendlyPos="x" id="e1det_B6C6_0" lane="B6C6_0" pos="86.26"/>
    <e1Detector file="NUL" freq="60" friendlyPos="x" id="e1det_C5C6_0" lane="C5C6_0" pos="106.7"/>
    <e1Detector file="NUL" freq="60" friendlyPos="x" id="e1det_C7C6_0" lane="C7C6_0" pos="106.7"/>
    <e1Detector file="NUL" freq="60" friendlyPos="x" id="e1det_D6C6_0" lane="D6C6_0" pos="85.17"/>
    <e1Detector file="NUL" freq="60" friendlyPos="x" id="e1det_B7B8_0" lane="B7B8_0" pos="51.24"/>
    <e1Detector file="NUL" freq="60" friendlyPos="x" id="e1det_B9B8_0" lane="B9B8_0" pos="51.24"/>
    <e1Detector file="NUL" freq="60" friendlyPos="x" id="e1det_C8B8_0" lane="C8B8_0" pos="86.26"/>
    <e1Detector file="NUL" freq="60" friendlyPos="x" id="e1det_B7C7_0" lane="B7C7_0" pos="86.26"/>
    <e1Detector file="NUL" freq="60" friendlyPos="x" id="e1det_C6C7_0" lane="C6C7_0" pos="106.7"/>
    <e1Detector file="NUL" freq="60" friendlyPos="x" id="e1det_C8C7_0" lane="C8C7_0" pos="106.7"/>
    <e1Detector file="NUL" freq="60" friendlyPos="x" id="e1det_D7C7_0" lane="D7C7_0" pos="85.17"/>
    <e1Detector file="NUL" freq="60" friendlyPos="x" id="e1det_B8C8_0" lane="B8C8_0" pos="86.26"/>
    <e1Detector file="NUL" freq="60" friendlyPos="x" id="e1det_C7C8_0" lane="C7C8_0" pos="106.7"/>
    <e1Detector file="NUL" freq="60" friendlyPos="x" id="e1det_C9C8_0" lane="C9C8_0" pos="106.7"/>
    <e1Detector file="NUL" freq="60" friendlyPos="x" id="e1det_D8C8_0" lane="D8C8_0" pos="85.17"/>
    <e1Detector file="NUL" freq="60" friendlyPos="x" id="e1det_B9C9_0" lane="B9C9_0" pos="86.26"/>
    <e1Detector file="NUL" freq="60" friendlyPos="x" id="e1det_C10C9_0" lane="C10C9_0" pos="106.7"/>
    <e1Detector file="NUL" freq="60" friendlyPos="x" id="e1det_C8C9_0" lane="C8C9_0" pos="106.7"/>
    <e1Detector file="NUL" freq="60" friendlyPos="x" id="e1det_D9C9_0" lane="D9C9_0" pos="85.17"/>
    <e1Detector file="NUL" freq="60" friendlyPos="x" id="e1det_C10D10_0" lane="C10D10_0" pos="85.17"/>
    <e1Detector file="NUL" freq="60" friendlyPos="x" id="e1det_D1D10_0" lane="D1D10_0" pos="168.5"/>
    <e1Detector file="NUL" freq="60" friendlyPos="x" id="e1det_D9D10_0" lane="D9D10_0" pos="168.5"/>
    <e1Detector file="NUL" freq="60" friendlyPos="x" id="e1det_E10D10_0" lane="E10D10_0" pos="85.17"/>
    <e1Detector file="NUL" freq="60" friendlyPos="x" id="e1det_C1D1_0" lane="C1D1_0" pos="85.17"/>
    <e1Detector file="NUL" freq="60" friendlyPos="x" id="e1det_D10D1_0" lane="D10D1_0" pos="168.5"/>
    <e1Detector file="NUL" freq="60" friendlyPos="x" id="e1det_D2D1_0" lane="D2D1_0" pos="168.5"/>
    <e1Detector file="NUL" freq="60" friendlyPos="x" id="e1det_E1D1_0" lane="E1D1_0" pos="85.17"/>
    <e1Detector file="NUL" freq="60" friendlyPos="x" id="e1det_C2D2_0" lane="C2D2_0" pos="85.17"/>
    <e1Detector file="NUL" freq="60" friendlyPos="x" id="e1det_D1D2_0" lane="D1D2_0" pos="168.5"/>
    <e1Detector file="NUL" freq="60" friendlyPos="x" id="e1det_D3D2_0" lane="D3D2_0" pos="168.5"/>
    <e1Detector file="NUL" freq="60" friendlyPos="x" id="e1det_E2D2_0" lane="E2D2_0" pos="85.17"/>
    <e1Detector file="NUL" freq="60" friendlyPos="x" id="e1det_C3D3_0" lane="C3D3_0" pos="85.17"/>
    <e1Detector file="NUL" freq="60" friendlyPos="x" id="e1det_D2D3_0" lane="D2D3_0" pos="168.5"/>
    <e1Detector file="NUL" freq="60" friendlyPos="x" id="e1det_D4D3_0" lane="D4D3_0" pos="168.5"/>
    <e1Detector file="NUL" freq="60" friendlyPos="x" id="e1det_E3D3_0" lane="E3D3_0" pos="85.17"/>
    <e1Detector file="NUL" freq="60" friendlyPos="x" id="e1det_C4D4_0" lane="C4D4_0" pos="85.17"/>
    <e1Detector file="NUL" freq="60" friendlyPos="x" id="e1det_D3D4_0" lane="D3D4_0" pos="168.5"/>
    <e1Detector file="NUL" freq="60" friendlyPos="x" id="e1det_D5D4_0" lane="D5D4_0" pos="168.5"/>
    <e1Detector file="NUL" freq="60" friendlyPos="x" id="e1det_E4D4_0" lane="E4D4_0" pos="85.17"/>
    <e1Detector file="NUL" freq="60" friendlyPos="x" id="e1det_C5D5_0" lane="C5D5_0" pos="85.17"/>
    <e1Detector file="NUL" freq="60" friendlyPos="x" id="e1det_D4D5_0" lane="D4D5_0" pos="168.5"/>
    <e1Detector file="NUL" freq="60" friendlyPos="x" id="e1det_D6D5_0" lane="D6D5_0" pos="168.5"/>
    <e1Detector file="NUL" freq="60" friendlyPos="x" id="e1det_E5D5_0" lane="E5D5_0" pos="85.17"/>
    <e1Detector file="NUL" freq="60" friendlyPos="x" id="e1det_C6D6_0" lane="C6D6_0" pos="85.17"/>
    <e1Detector file="NUL" freq="60" friendlyPos="x" id="e1det_D5D6_0" lane="D5D6_0" pos="168.5"/>
    <e1Detector file="NUL" freq="60" friendlyPos="x" id="e1det_D7D6_0" lane="D7D6_0" pos="168.5"/>
    <e1Detector file="NUL" freq="60" friendlyPos="x" id="e1det_E6D6_0" lane="E6D6_0" pos="85.17"/>
    <e1Detector file="NUL" freq="60" friendlyPos="x" id="e1det_C7D7_0" lane="C7D7_0" pos="85.17"/>
    <e1Detector file="NUL" freq="60" friendlyPos="x" id="e1det_D6D7_0" lane="D6D7_0" pos="168.5"/>
    <e1Detector file="NUL" freq="60" friendlyPos="x" id="e1det_D8D7_0" lane="D8D7_0" pos="168.5"/>
    <e1Detector file="NUL" freq="60" friendlyPos="x" id="e1det_E7D7_0" lane="E7D7_0" pos="85.17"/>
    <e1Detector file="NUL" freq="60" friendlyPos="x" id="e1det_C8D8_0" lane="C8D8_0" pos="85.17"/>
    <e1Detector file="NUL" freq="60" friendlyPos="x" id="e1det_D7D8_0" lane="D7D8_0" pos="168.5"/>
    <e1Detector file="NUL" freq="60" friendlyPos="x" id="e1det_D9D8_0" lane="D9D8_0" pos="168.5"/>
    <e1Detector file="NUL" freq="60" friendlyPos="x" id="e1det_E8D8_0" lane="E8D8_0" pos="85.17"/>
    <e1Detector file="NUL" freq="60" friendlyPos="x" id="e1det_C9D9_0" lane="C9D9_0" pos="85.17"/>
    <e1Detector file="NUL" freq="60" friendlyPos="x" id="e1det_D10D9_0" lane="D10D9_0" pos="168.5"/>
    <e1Detector file="NUL" freq="60" friendlyPos="x" id="e1det_D8D9_0" lane="D8D9_0" pos="168.5"/>
    <e1Detector file="NUL" freq="60" friendlyPos="x" id="e1det_E9D9_0" lane="E9D9_0" pos="85.17"/>
    <e1Detector file="NUL" freq="60" friendlyPos="x" id="e1det_D10E10_0" lane="D10E10_0" pos="85.17"/>
    <e1Detector file="NUL" freq="60" friendlyPos="x" id="e1det_E1E10_0" lane="E1E10_0" pos="230.3"/>
    <e1Detector file="NUL" freq="60" friendlyPos="x" id="e1det_E9E10_0" lane="E9E10_0" pos="230.3"/>
    <e1Detector file="NUL" freq="60" friendlyPos="x" id="e1det_F10E10_0" lane="F10E10_0" pos="85.17"/>
    <e1Detector file="NUL" freq="60" friendlyPos="x" id="e1det_D1E1_0" lane="D1E1_0" pos="85.17"/>
    <e1Detector file="NUL" freq="60" friendlyPos="x" id="e1det_E10E1_0" lane="E10E1_0" pos="230.3"/>
    <e1Detector file="NUL" freq="60" friendlyPos="x" id="e1det_E2E1_0" lane="E2E1_0" pos="230.3"/>
    <e1Detector file="NUL" freq="60" friendlyPos="x" id="e1det_F1E1_0" lane="F1E1_0" pos="85.17"/>
    <e1Detector file="NUL" freq="60" friendlyPos="x" id="e1det_D2E2_0" lane="D2E2_0" pos="85.17"/>
    <e1Detector file="NUL" freq="60" friendlyPos="x" id="e1det_E1E2_0" lane="E1E2_0" pos="230.3"/>
    <e1Detector file="NUL" freq="60" friendlyPos="x" id="e1det_E3E2_0" lane="E3E2_0" pos="230.3"/>
    <e1Detector file="NUL" freq="60" friendlyPos="x" id="e1det_F2E2_0" lane="F2E2_0" pos="85.17"/>
    <e1Detector file="NUL" freq="60" friendlyPos="x" id="e1det_D3E3_0" lane="D3E3_0" pos="85.17"/>
    <e1Detector file="NUL" freq="60" friendlyPos="x" id="e1det_E2E3_0" lane="E2E3_0" pos="230.3"/>
    <e1Detector file="NUL" freq="60" friendlyPos="x" id="e1det_E4E3_0" lane="E4E3_0" pos="230.3"/>
    <e1Detector file="NUL" freq="60" friendlyPos="x" id="e1det_F3E3_0" lane="F3E3_0" pos="85.17"/>
    <e1Detector file="NUL" freq="60" friendlyPos="x" id="e1det_D4E4_0" lane="D4E4_0" pos="85.17"/>
    <e1Detector file="NUL" freq="60" friendlyPos="x" id="e1det_E3E4_0" lane="E3E4_0" pos="230.3"/>
    <e1Detector file="NUL" freq="60" friendlyPos="x" id="e1det_E5E4_0" lane="E5E4_0" pos="230.3"/>
    <e1Detector file="NUL" freq="60" friendlyPos="x" id="e1det_F4E4_0" lane="F4E4_0" pos="85.17"/>
    <e1Detector file="NUL" freq="60" friendlyPos="x" id="e1det_D5E5_0" lane="D5E5_0" pos="85.17"/>
    <e1Detector file="NUL" freq="60" friendlyPos="x" id="e1det_E4E5_0" lane="E4E5_0" pos="230.3"/>
    <e1Detector file="NUL" freq="60" friendlyPos="x" id="e1det_E6E5_0" lane="E6E5_0" pos="230.3"/>
    <e1Detector file="NUL" freq="60" friendlyPos="x" id="e1det_F5E5_0" lane="F5E5_0" pos="85.17"/>
    <e1Detector file="NUL" freq="60" friendlyPos="x" id="e1det_D6E6_0" lane="D6E6_0" pos="85.17"/>
    <e1Detector file="NUL" freq="60" friendlyPos="x" id="e1det_E5E6_0" lane="E5E6_0" pos="230.3"/>
    <e1Detector file="NUL" freq="60" friendlyPos="x" id="e1det_E7E6_0" lane="E7E6_0" pos="230.3"/>
    <e1Detector file="NUL" freq="60" friendlyPos="x" id="e1det_F6E6_0" lane="F6E6_0" pos="85.17"/>
    <e1Detector file="NUL" freq="60" friendlyPos="x" id="e1det_D7E7_0" lane="D7E7_0" pos="85.17"/>
    <e1Detector file="NUL" freq="60" friendlyPos="x" id="e1det_E6E7_0" lane="E6E7_0" pos="230.3"/>
    <e1Detector file="NUL" freq="60" friendlyPos="x" id="e1det_E8E7_0" lane="E8E7_0" pos="230.3"/>
    <e1Detector file="NUL" freq="60" friendlyPos="x" id="e1det_F7E7_0" lane="F7E7_0" pos="85.17"/>
    <e1Detector file="NUL" freq="60" friendlyPos="x" id="e1det_D8E8_0" lane="D8E8_0" pos="85.17"/>
    <e1Detector file="NUL" freq="60" friendlyPos="x" id="e1det_E7E8_0" lane="E7E8_0" pos="230.3"/>
    <e1Detector file="NUL" freq="60" friendlyPos="x" id="e1det_E9E8_0" lane="E9E8_0" pos="230.3"/>
    <e1Detector file="NUL" freq="60" friendlyPos="x" id="e1det_F8E8_0" lane="F8E8_0" pos="85.17"/>
    <e1Detector file="NUL" freq="60" friendlyPos="x" id="e1det_D9E9_0" lane="D9E9_0" pos="85.17"/>
    <e1Detector file="NUL" freq="60" friendlyPos="x" id="e1det_E10E9_0" lane="E10E9_0" pos="230.3"/>
    <e1Detector file="NUL" freq="60" friendlyPos="x" id="e1det_E8E9_0" lane="E8E9_0" pos="230.3"/>
    <e1Detector file="NUL" freq="60" friendlyPos="x" id="e1det_F9E9_0" lane="F9E9_0" pos="85.17"/>
    <e1Detector file="NUL" freq="60" friendlyPos="x" id="e1det_E10F10_0" lane="E10F10_0" pos="85.17"/>
    <e1Detector file="NUL" freq="60" friendlyPos="x" id="e1det_F1F10_0" lane="F1F10_0" pos="292.10999999999996"/>
    <e1Detector file="NUL" freq="60" friendlyPos="x" id="e1det_F9F10_0" lane="F9F10_0" pos="292.10999999999996"/>
    <e1Detector file="NUL" freq="60" friendlyPos="x" id="e1det_G10F10_0" lane="G10F10_0" pos="85.17"/>
    <e1Detector file="NUL" freq="60" friendlyPos="x" id="e1det_E1F1_0" lane="E1F1_0" pos="85.17"/>
    <e1Detector file="NUL" freq="60" friendlyPos="x" id="e1det_F10F1_0" lane="F10F1_0" pos="292.10999999999996"/>
    <e1Detector file="NUL" freq="60" friendlyPos="x" id="e1det_F2F1_0" lane="F2F1_0" pos="292.10999999999996"/>
    <e1Detector file="NUL" freq="60" friendlyPos="x" id="e1det_G1F1_0" lane="G1F1_0" pos="85.17"/>
    <e1Detector file="NUL" freq="60" friendlyPos="x" id="e1det_E2F2_0" lane="E2F2_0" pos="85.17"/>
    <e1Detector file="NUL" freq="60" friendlyPos="x" id="e1det_F1F2_0" lane="F1F2_0" pos="292.10999999999996"/>
    <e1Detector file="NUL" freq="60" friendlyPos="x" id="e1det_F3F2_0" lane="F3F2_0" pos="292.10999999999996"/>
    <e1Detector file="NUL" freq="60" friendlyPos="x" id="e1det_G2F2_0" lane="G2F2_0" pos="85.17"/>
    <e1Detector file="NUL" freq="60" friendlyPos="x" id="e1det_E3F3_0" lane="E3F3_0" pos="85.17"/>
    <e1Detector file="NUL" freq="60" friendlyPos="x" id="e1det_F2F3_0" lane="F2F3_0" pos="292.10999999999996"/>
    <e1Detector file="NUL" freq="60" friendlyPos="x" id="e1det_F4F3_0" lane="F4F3_0" pos="292.10999999999996"/>
    <e1Detector file="NUL" freq="60" friendlyPos="x" id="e1det_G3F3_0" lane="G3F3_0" pos="85.17"/>
    <e1Detector file="NUL" freq="60" friendlyPos="x" id="e1det_E4F4_0" lane="E4F4_0" pos="85.17"/>
    <e1Detector file="NUL" freq="60" friendlyPos="x" id="e1det_F3F4_0" lane="F3F4_0" pos="292.10999999999996"/>
    <e1Detector file="NUL" freq="60" friendlyPos="x" id="e1det_F5F4_0" lane="F5F4_0" pos="292.10999999999996"/>
    <e1Detector file="NUL" freq="60" friendlyPos="x" id="e1det_G4F4_0" lane="G4F4_0" pos="85.17"/>
    <e1Detector file="NUL" freq="60" friendlyPos="x" id="e1det_E5F5_0" lane="E5F5_0" pos="85.17"/>
    <e1Detector file="NUL" freq="60" friendlyPos="x" id="e1det_F4F5_0" lane="F4F5_0" pos="292.10999999999996"/>
    <e1Detector file="NUL" freq="60" friendlyPos="x" id="e1det_F6F5_0" lane="F6F5_0" pos="292.10999999999996"/>
    <e1Detector file="NUL" freq="60" friendlyPos="x" id="e1det_G5F5_0" lane="G5F5_0" pos="85.17"/>
    <e1Detector file="NUL" freq="60" friendlyPos="x" id="e1det_E6F6_0" lane="E6F6_0" pos="85.17"/>
    <e1Detector file="NUL" freq="60" friendlyPos="x" id="e1det_F5F6_0" lane="F5F6_0" pos="292.10999999999996"/>
    <e1Detector file="NUL" freq="60" friendlyPos="x" id="e1det_F7F6_0" lane="F7F6_0" pos="292.10999999999996"/>
    <e1Detector file="NUL" freq="60" friendlyPos="x" id="e1det_G6F6_0" lane="G6F6_0" pos="85.17"/>
    <e1Detector file="NUL" freq="60" friendlyPos="x" id="e1det_E7F7_0" lane="E7F7_0" pos="85.17"/>
    <e1Detector file="NUL" freq="60" friendlyPos="x" id="e1det_F6F7_0" lane="F6F7_0" pos="292.10999999999996"/>
    <e1Detector file="NUL" freq="60" friendlyPos="x" id="e1det_F8F7_0" lane="F8F7_0" pos="292.10999999999996"/>
    <e1Detector file="NUL" freq="60" friendlyPos="x" id="e1det_G7F7_0" lane="G7F7_0" pos="85.17"/>
    <e1Detector file="NUL" freq="60" friendlyPos="x" id="e1det_E8F8_0" lane="E8F8_0" pos="85.17"/>
    <e1Detector file="NUL" freq="60" friendlyPos="x" id="e1det_F7F8_0" lane="F7F8_0" pos="292.10999999999996"/>
    <e1Detector file="NUL" freq="60" friendlyPos="x" id="e1det_F9F8_0" lane="F9F8_0" pos="292.10999999999996"/>
    <e1Detector file="NUL" freq="60" friendlyPos="x" id="e1det_G8F8_0" lane="G8F8_0" pos="85.17"/>
    <e1Detector file="NUL" freq="60" friendlyPos="x" id="e1det_E9F9_0" lane="E9F9_0" pos="85.17"/>
    <e1Detector file="NUL" freq="60" friendlyPos="x" id="e1det_F10F9_0" lane="F10F9_0" pos="292.10999999999996"/>
    <e1Detector file="NUL" freq="60" friendlyPos="x" id="e1det_F8F9_0" lane="F8F9_0" pos="292.10999999999996"/>
    <e1Detector file="NUL" freq="60" friendlyPos="x" id="e1det_G9F9_0" lane="G9F9_0" pos="85.17"/>
    <e1Detector file="NUL" freq="60" friendlyPos="x" id="e1det_F10G10_0" lane="F10G10_0" pos="85.17"/>
    <e1Detector file="NUL" freq="60" friendlyPos="x" id="e1det_G1G10_0" lane="G1G10_0" pos="353.90999999999997"/>
    <e1Detector file="NUL" freq="60" friendlyPos="x" id="e1det_G9G10_0" lane="G9G10_0" pos="353.90999999999997"/>
    <e1Detector file="NUL" freq="60" friendlyPos="x" id="e1det_H10G10_0" lane="H10G10_0" pos="85.17"/>
    <e1Detector file="NUL" freq="60" friendlyPos="x" id="e1det_F1G1_0" lane="F1G1_0" pos="85.17"/>
    <e1Detector file="NUL" freq="60" friendlyPos="x" id="e1det_G10G1_0" lane="G10G1_0" pos="353.90999999999997"/>
    <e1Detector file="NUL" freq="60" friendlyPos="x" id="e1det_G2G1_0" lane="G2G1_0" pos="353.90999999999997"/>
    <e1Detector file="NUL" freq="60" friendlyPos="x" id="e1det_H1G1_0" lane="H1G1_0" pos="85.17"/>
    <e1Detector file="NUL" freq="60" friendlyPos="x" id="e1det_F2G2_0" lane="F2G2_0" pos="85.17"/>
    <e1Detector file="NUL" freq="60" friendlyPos="x" id="e1det_G1G2_0" lane="G1G2_0" pos="353.90999999999997"/>
    <e1Detector file="NUL" freq="60" friendlyPos="x" id="e1det_G3G2_0" lane="G3G2_0" pos="353.90999999999997"/>
    <e1Detector file="NUL" freq="60" friendlyPos="x" id="e1det_H2G2_0" lane="H2G2_0" pos="85.17"/>
    <e1Detector file="NUL" freq="60" friendlyPos="x" id="e1det_F3G3_0" lane="F3G3_0" pos="85.17"/>
    <e1Detector file="NUL" freq="60" friendlyPos="x" id="e1det_G2G3_0" lane="G2G3_0" pos="353.90999999999997"/>
    <e1Detector file="NUL" freq="60" friendlyPos="x" id="e1det_G4G3_0" lane="G4G3_0" pos="353.90999999999997"/>
    <e1Detector file="NUL" freq="60" friendlyPos="x" id="e1det_H3G3_0" lane="H3G3_0" pos="85.17"/>
    <e1Detector file="NUL" freq="60" friendlyPos="x" id="e1det_F4G4_0" lane="F4G4_0" pos="85.17"/>
    <e1Detector file="NUL" freq="60" friendlyPos="x" id="e1det_G3G4_0" lane="G3G4_0" pos="353.90999999999997"/>
    <e1Detector file="NUL" freq="60" friendlyPos="x" id="e1det_G5G4_0" lane="G5G4_0" pos="353.90999999999997"/>
    <e1Detector file="NUL" freq="60" friendlyPos="x" id="e1det_H4G4_0" lane="H4G4_0" pos="85.17"/>
    <e1Detector file="NUL" freq="60" friendlyPos="x" id="e1det_F5G5_0" lane="F5G5_0" pos="85.17"/>
    <e1Detector file="NUL" freq="60" friendlyPos="x" id="e1det_G4G5_0" lane="G4G5_0" pos="353.90999999999997"/>
    <e1Detector file="NUL" freq="60" friendlyPos="x" id="e1det_G6G5_0" lane="G6G5_0" pos="353.90999999999997"/>
    <e1Detector file="NUL" freq="60" friendlyPos="x" id="e1det_H5G5_0" lane="H5G5_0" pos="85.17"/>
    <e1Detector file="NUL" freq="60" friendlyPos="x" id="e1det_F6G6_0" lane="F6G6_0" pos="85.17"/>
    <e1Detector file="NUL" freq="60" friendlyPos="x" id="e1det_G5G6_0" lane="G5G6_0" pos="353.90999999999997"/>
    <e1Detector file="NUL" freq="60" friendlyPos="x" id="e1det_G7G6_0" lane="G7G6_0" pos="353.90999999999997"/>
    <e1Detector file="NUL" freq="60" friendlyPos="x" id="e1det_H6G6_0" lane="H6G6_0" pos="85.17"/>
    <e1Detector file="NUL" freq="60" friendlyPos="x" id="e1det_F7G7_0" lane="F7G7_0" pos="85.17"/>
    <e1Detector file="NUL" freq="60" friendlyPos="x" id="e1det_G6G7_0" lane="G6G7_0" pos="353.90999999999997"/>
    <e1Detector file="NUL" freq="60" friendlyPos="x" id="e1det_G8G7_0" lane="G8G7_0" pos="353.90999999999997"/>
    <e1Detector file="NUL" freq="60" friendlyPos="x" id="e1det_H7G7_0" lane="H7G7_0" pos="85.17"/>
    <e1Detector file="NUL" freq="60" friendlyPos="x" id="e1det_F8G8_0" lane="F8G8_0" pos="85.17"/>
    <e1Detector file="NUL" freq="60" friendlyPos="x" id="e1det_G7G8_0" lane="G7G8_0" pos="353.90999999999997"/>
    <e1Detector file="NUL" freq="60" friendlyPos="x" id="e1det_G9G8_0" lane="G9G8_0" pos="353.90999999999997"/>
    <e1Detector file="NUL" freq="60" friendlyPos="x" id="e1det_H8G8_0" lane="H8G8_0" pos="85.17"/>
    <e1Detector file="NUL" freq="60" friendlyPos="x" id="e1det_F9G9_0" lane="F9G9_0" pos="85.17"/>
    <e1Detector file="NUL" freq="60" friendlyPos="x" id="e1det_G10G9_0" lane="G10G9_0" pos="353.90999999999997"/>
    <e1Detector file="NUL" freq="60" friendlyPos="x" id="e1det_G8G9_0" lane="G8G9_0" pos="353.90999999999997"/>
    <e1Detector file="NUL" freq="60" friendlyPos="x" id="e1det_H9G9_0" lane="H9G9_0" pos="85.17"/>
    <e1Detector file="NUL" freq="60" friendlyPos="x" id="e1det_G10H10_0" lane="G10H10_0" pos="85.17"/>
    <e1Detector file="NUL" freq="60" friendlyPos="x" id="e1det_H1H10_0" lane="H1H10_0" pos="415.71"/>
    <e1Detector file="NUL" freq="60" friendlyPos="x" id="e1det_H9H10_0" lane="H9H10_0" pos="415.71"/>
    <e1Detector file="NUL" freq="60" friendlyPos="x" id="e1det_I10H10_0" lane="I10H10_0" pos="85.17"/>
    <e1Detector file="NUL" freq="60" friendlyPos="x" id="e1det_G1H1_0" lane="G1H1_0" pos="85.17"/>
    <e1Detector file="NUL" freq="60" friendlyPos="x" id="e1det_H10H1_0" lane="H10H1_0" pos="415.71"/>
    <e1Detector file="NUL" freq="60" friendlyPos="x" id="e1det_H2H1_0" lane="H2H1_0" pos="415.71"/>
    <e1Detector file="NUL" freq="60" friendlyPos="x" id="e1det_I1H1_0" lane="I1H1_0" pos="85.17"/>
    <e1Detector file="NUL" freq="60" friendlyPos="x" id="e1det_G2H2_0" lane="G2H2_0" pos="85.17"/>
    <e1Detector file="NUL" freq="60" friendlyPos="x" id="e1det_H1H2_0" lane="H1H2_0" pos="415.71"/>
    <e1Detector file="NUL" freq="60" friendlyPos="x" id="e1det_H3H2_0" lane="H3H2_0" pos="415.71"/>
    <e1Detector file="NUL" freq="60" friendlyPos="x" id="e1det_I2H2_0" lane="I2H2_0" pos="85.17"/>
    <e1Detector file="NUL" freq="60" friendlyPos="x" id="e1det_G3H3_0" lane="G3H3_0" pos="85.17"/>
    <e1Detector file="NUL" freq="60" friendlyPos="x" id="e1det_H2H3_0" lane="H2H3_0" pos="415.71"/>
    <e1Detector file="NUL" freq="60" friendlyPos="x" id="e1det_H4H3_0" lane="H4H3_0" pos="415.71"/>
    <e1Detector file="NUL" freq="60" friendlyPos="x" id="e1det_I3H3_0" lane="I3H3_0" pos="85.17"/>
    <e1Detector file="NUL" freq="60" friendlyPos="x" id="e1det_G4H4_0" lane="G4H4_0" pos="85.17"/>
    <e1Detector file="NUL" freq="60" friendlyPos="x" id="e1det_H3H4_0" lane="H3H4_0" pos="415.71"/>
    <e1Detector file="NUL" freq="60" friendlyPos="x" id="e1det_H5H4_0" lane="H5H4_0" pos="415.71"/>
    <e1Detector file="NUL" freq="60" friendlyPos="x" id="e1det_I4H4_0" lane="I4H4_0" pos="85.17"/>
    <e1Detector file="NUL" freq="60" friendlyPos="x" id="e1det_G5H5_0" lane="G5H5_0" pos="85.17"/>
    <e1Detector file="NUL" freq="60" friendlyPos="x" id="e1det_H4H5_0" lane="H4H5_0" pos="415.71"/>
    <e1Detector file="NUL" freq="60" friendlyPos="x" id="e1det_H6H5_0" lane="H6H5_0" pos="415.71"/>
    <e1Detector file="NUL" freq="60" friendlyPos="x" id="e1det_I5H5_0" lane="I5H5_0" pos="85.17"/>
    <e1Detector file="NUL" freq="60" friendlyPos="x" id="e1det_G6H6_0" lane="G6H6_0" pos="85.17"/>
    <e1Detector file="NUL" freq="60" friendlyPos="x" id="e1det_H5H6_0" lane="H5H6_0" pos="415.71"/>
    <e1Detector file="NUL" freq="60" friendlyPos="x" id="e1det_H7H6_0" lane="H7H6_0" pos="415.71"/>
    <e1Detector file="NUL" freq="60" friendlyPos="x" id="e1det_I6H6_0" lane="I6H6_0" pos="85.17"/>
    <e1Detector file="NUL" freq="60" friendlyPos="x" id="e1det_G7H7_0" lane="G7H7_0" pos="85.17"/>
    <e1Detector file="NUL" freq="60" friendlyPos="x" id="e1det_H6H7_0" lane="H6H7_0" pos="415.71"/>
    <e1Detector file="NUL" freq="60" friendlyPos="x" id="e1det_H8H7_0" lane="H8H7_0" pos="415.71"/>
    <e1Detector file="NUL" freq="60" friendlyPos="x" id="e1det_I7H7_0" lane="I7H7_0" pos="85.17"/>
    <e1Detector file="NUL" freq="60" friendlyPos="x" id="e1det_G8H8_0" lane="G8H8_0" pos="85.17"/>
    <e1Detector file="NUL" freq="60" friendlyPos="x" id="e1det_H7H8_0" lane="H7H8_0" pos="415.71"/>
    <e1Detector file="NUL" freq="60" friendlyPos="x" id="e1det_H9H8_0" lane="H9H8_0" pos="415.71"/>
    <e1Detector file="NUL" freq="60" friendlyPos="x" id="e1det_I8H8_0" lane="I8H8_0" pos="85.17"/>
    <e1Detector file="NUL" freq="60" friendlyPos="x" id="e1det_G9H9_0" lane="G9H9_0" pos="85.17"/>
    <e1Detector file="NUL" freq="60" friendlyPos="x" id="e1det_H10H9_0" lane="H10H9_0" pos="415.71"/>
    <e1Detector file="NUL" freq="60" friendlyPos="x" id="e1det_H8H9_0" lane="H8H9_0" pos="415.71"/>
    <e1Detector file="NUL" freq="60" friendlyPos="x" id="e1det_I9H9_0" lane="I9H9_0" pos="85.17"/>
    <e1Detector file="NUL" freq="60" friendlyPos="x" id="e1det_H10I10_0" lane="H10I10_0" pos="85.17"/>
    <e1Detector file="NUL" freq="60" friendlyPos="x" id="e1det_I1I10_0" lane="I1I10_0" pos="477.52"/>
    <e1Detector file="NUL" freq="60" friendlyPos="x" id="e1det_I9I10_0" lane="I9I10_0" pos="477.52"/>
    <e1Detector file="NUL" freq="60" friendlyPos="x" id="e1det_J10I10_0" lane="J10I10_0" pos="85.17"/>
    <e1Detector file="NUL" freq="60" friendlyPos="x" id="e1det_H1I1_0" lane="H1I1_0" pos="85.17"/>
    <e1Detector file="NUL" freq="60" friendlyPos="x" id="e1det_I10I1_0" lane="I10I1_0" pos="477.52"/>
    <e1Detector file="NUL" freq="60" friendlyPos="x" id="e1det_I2I1_0" lane="I2I1_0" pos="477.52"/>
    <e1Detector file="NUL" freq="60" friendlyPos="x" id="e1det_J1I1_0" lane="J1I1_0" pos="85.17"/>
    <e1Detector file="NUL" freq="60" friendlyPos="x" id="e1det_H2I2_0" lane="H2I2_0" pos="85.17"/>
    <e1Detector file="NUL" freq="60" friendlyPos="x" id="e1det_I1I2_0" lane="I1I2_0" pos="477.52"/>
    <e1Detector file="NUL" freq="60" friendlyPos="x" id="e1det_I3I2_0" lane="I3I2_0" pos="477.52"/>
    <e1Detector file="NUL" freq="60" friendlyPos="x" id="e1det_J2I2_0" lane="J2I2_0" pos="85.17"/>
    <e1Detector file="NUL" freq="60" friendlyPos="x" id="e1det_H3I3_0" lane="H3I3_0" pos="85.17"/>
    <e1Detector file="NUL" freq="60" friendlyPos="x" id="e1det_I2I3_0" lane="I2I3_0" pos="477.52"/>
    <e1Detector file="NUL" freq="60" friendlyPos="x" id="e1det_I4I3_0" lane="I4I3_0" pos="477.52"/>
    <e1Detector file="NUL" freq="60" friendlyPos="x" id="e1det_J3I3_0" lane="J3I3_0" pos="85.17"/>
    <e1Detector file="NUL" freq="60" friendlyPos="x" id="e1det_H4I4_0" lane="H4I4_0" pos="85.17"/>
    <e1Detector file="NUL" freq="60" friendlyPos="x" id="e1det_I3I4_0" lane="I3I4_0" pos="477.52"/>
    <e1Detector file="NUL" freq="60" friendlyPos="x" id="e1det_I5I4_0" lane="I5I4_0" pos="477.52"/>
    <e1Detector file="NUL" freq="60" friendlyPos="x" id="e1det_J4I4_0" lane="J4I4_0" pos="85.17"/>
    <e1Detector file="NUL" freq="60" friendlyPos="x" id="e1det_H5I5_0" lane="H5I5_0" pos="85.17"/>
    <e1Detector file="NUL" freq="60" friendlyPos="x" id="e1det_I4I5_0" lane="I4I5_0" pos="477.52"/>
    <e1Detector file="NUL" freq="60" friendlyPos="x" id="e1det_I6I5_0" lane="I6I5_0" pos="477.52"/>
    <e1Detector file="NUL" freq="60" friendlyPos="x" id="e1det_J5I5_0" lane="J5I5_0" pos="85.17"/>