<additional xmlns:xsi="http://www.w3.org/2001/XMLSchema-instance" xsi:noNamespaceSchemaLocation="http://sumo.dlr.de/xsd/additional_file.xsd">
    <e1Detector file="e1output.xml" freq="60" friendlyPos="x" id="e1det_A1B1_0" lane="A1B1_0" pos="81.21000000000001"/>
    <e1Detector file="e1output.xml" freq="60" friendlyPos="x" id="e1det_B2B1_0" lane="B2B1_0" pos="96.89"/>
    <e1Detector file="e1output.xml" freq="60" friendlyPos="x" id="e1det_B5B1_0" lane="B5B1_0" pos="96.9"/>
    <e1Detector file="e1output.xml" freq="60" friendlyPos="x" id="e1det_C1B1_0" lane="C1B1_0" pos="83.99000000000001"/>
    <e1Detector file="e1output.xml" freq="60" friendlyPos="x" id="e1det_A1B2_0" lane="A1B2_0" pos="81.21000000000001"/>
    <e1Detector file="e1output.xml" freq="60" friendlyPos="x" id="e1det_B1B2_0" lane="B1B2_0" pos="96.89"/>
    <e1Detector file="e1output.xml" freq="60" friendlyPos="x" id="e1det_B3B2_0" lane="B3B2_0" pos="96.89"/>
    <e1Detector file="e1output.xml" freq="60" friendlyPos="x" id="e1det_C2B2_0" lane="C2B2_0" pos="83.99000000000001"/>
    <e1Detector file="e1output.xml" freq="60" friendlyPos="x" id="e1det_A1B3_0" lane="A1B3_0" pos="81.21000000000001"/>
    <e1Detector file="e1output.xml" freq="60" friendlyPos="x" id="e1det_B2B3_0" lane="B2B3_0" pos="96.89"/>
    <e1Detector file="e1output.xml" freq="60" friendlyPos="x" id="e1det_B4B3_0" lane="B4B3_0" pos="96.9"/>
    <e1Detector file="e1output.xml" freq="60" friendlyPos="x" id="e1det_C3B3_0" lane="C3B3_0" pos="83.99000000000001"/>
    <e1Detector file="e1output.xml" freq="60" friendlyPos="x" id="e1det_A1B4_0" lane="A1B4_0" pos="81.21000000000001"/>
    <e1Detector file="e1output.xml" freq="60" friendlyPos="x" id="e1det_B3B4_0" lane="B3B4_0" pos="96.9"/>
    <e1Detector file="e1output.xml" freq="60" friendlyPos="x" id="e1det_B5B4_0" lane="B5B4_0" pos="96.89"/>
    <e1Detector file="e1output.xml" freq="60" friendlyPos="x" id="e1det_C4B4_0" lane="C4B4_0" pos="83.99000000000001"/>
    <e1Detector file="e1output.xml" freq="60" friendlyPos="x" id="e1det_A1B5_0" lane="A1B5_0" pos="81.22"/>
    <e1Detector file="e1output.xml" freq="60" friendlyPos="x" id="e1det_B1B5_0" lane="B1B5_0" pos="96.9"/>
    <e1Detector file="e1output.xml" freq="60" friendlyPos="x" id="e1det_B4B5_0" lane="B4B5_0" pos="96.89"/>
    <e1Detector file="e1output.xml" freq="60" friendlyPos="x" id="e1det_C5B5_0" lane="C5B5_0" pos="83.98"/>
    <e1Detector file="e1output.xml" freq="60" friendlyPos="x" id="e1det_B1A1_0" lane="B1A1_0" pos="81.21000000000001"/>
    <e1Detector file="e1output.xml" freq="60" friendlyPos="x" id="e1det_B2A1_0" lane="B2A1_0" pos="81.21000000000001"/>
    <e1Detector file="e1output.xml" freq="60" friendlyPos="x" id="e1det_B3A1_0" lane="B3A1_0" pos="81.21000000000001"/>
    <e1Detector file="e1output.xml" freq="60" friendlyPos="x" id="e1det_B4A1_0" lane="B4A1_0" pos="81.21000000000001"/>
    <e1Detector file="e1output.xml" freq="60" friendlyPos="x" id="e1det_B5A1_0" lane="B5A1_0" pos="81.22"/>
    <e1Detector file="e1output.xml" freq="60" friendlyPos="x" id="e1det_B1C1_0" lane="B1C1_0" pos="83.99000000000001"/>
    <e1Detector file="e1output.xml" freq="60" friendlyPos="x" id="e1det_C2C1_0" lane="C2C1_0" pos="214.45000000000002"/>
    <e1Detector file="e1output.xml" freq="60" friendlyPos="x" id="e1det_C5C1_0" lane="C5C1_0" pos="214.45000000000002"/>
    <e1Detector file="e1output.xml" freq="60" friendlyPos="x" id="e1det_D1C1_0" lane="D1C1_0" pos="83.99000000000001"/>
    <e1Detector file="e1output.xml" freq="60" friendlyPos="x" id="e1det_B2C2_0" lane="B2C2_0" pos="83.99000000000001"/>
    <e1Detector file="e1output.xml" freq="60" friendlyPos="x" id="e1det_C1C2_0" lane="C1C2_0" pos="214.45000000000002"/>
    <e1Detector file="e1output.xml" freq="60" friendlyPos="x" id="e1det_C3C2_0" lane="C3C2_0" pos="214.45000000000002"/>
    <e1Detector file="e1output.xml" freq="60" friendlyPos="x" id="e1det_D2C2_0" lane="D2C2_0" pos="83.99000000000001"/>
    <e1Detector file="e1output.xml" freq="60" friendlyPos="x" id="e1det_B3C3_0" lane="B3C3_0" pos="83.99000000000001"/>
    <e1Detector file="e1output.xml" freq="60" friendlyPos="x" id="e1det_C2C3_0" lane="C2C3_0" pos="214.45000000000002"/>
    <e1Detector file="e1output.xml" freq="60" friendlyPos="x" id="e1det_C4C3_0" lane="C4C3_0" pos="214.46"/>
    <e1Detector file="e1output.xml" freq="60" friendlyPos="x" id="e1det_D3C3_0" lane="D3C3_0" pos="83.99000000000001"/>
    <e1Detector file="e1output.xml" freq="60" friendlyPos="x" id="e1det_B4C4_0" lane="B4C4_0" pos="83.99000000000001"/>
    <e1Detector file="e1output.xml" freq="60" friendlyPos="x" id="e1det_C3C4_0" lane="C3C4_0" pos="214.46"/>
    <e1Detector file="e1output.xml" freq="60" friendlyPos="x" id="e1det_C5C4_0" lane="C5C4_0" pos="214.45000000000002"/>
    <e1Detector file="e1output.xml" freq="60" friendlyPos="x" id="e1det_D4C4_0" lane="D4C4_0" pos="84.0"/>
    <e1Detector file="e1output.xml" freq="60" friendlyPos="x" id="e1det_B5C5_0" lane="B5C5_0" pos="83.98"/>
    <e1Detector file="e1output.xml" freq="60" friendlyPos="x" id="e1det_C1C5_0" lane="C1C5_0" pos="214.45000000000002"/>
    <e1Detector file="e1output.xml" freq="60" friendlyPos="x" id="e1det_C4C5_0" lane="C4C5_0" pos="214.45000000000002"/>
    <e1Detector file="e1output.xml" freq="60" friendlyPos="x" id="e1det_D5C5_0" lane="D5C5_0" pos="83.99000000000001"/>
    <e1Detector file="e1output.xml" freq="60" friendlyPos="x" id="e1det_C1D1_0" lane="C1D1_0" pos="83.99000000000001"/>
    <e1Detector file="e1output.xml" freq="60" friendlyPos="x" id="e1det_D2D1_0" lane="D2D1_0" pos="332.02"/>
    <e1Detector file="e1output.xml" freq="60" friendlyPos="x" id="e1det_D5D1_0" lane="D5D1_0" pos="332.02"/>
    <e1Detector file="e1output.xml" freq="60" friendlyPos="x" id="e1det_E1D1_0" lane="E1D1_0" pos="83.99000000000001"/>
    <e1Detector file="e1output.xml" freq="60" friendlyPos="x" id="e1det_C2D2_0" lane="C2D2_0" pos="83.99000000000001"/>
    <e1Detector file="e1output.xml" freq="60" friendlyPos="x" id="e1det_D1D2_0" lane="D1D2_0" pos="332.02"/>
    <e1Detector file="e1output.xml" freq="60" friendlyPos="x" id="e1det_D3D2_0" lane="D3D2_0" pos="332.01"/>
    <e1Detector file="e1output.xml" freq="60" friendlyPos="x" id="e1det_E2D2_0" lane="E2D2_0" pos="83.99000000000001"/>
    <e1Detector file="e1output.xml" freq="60" friendlyPos="x" id="e1det_C3D3_0" lane="C3D3_0" pos="83.99000000000001"/>
    <e1Detector file="e1output.xml" freq="60" friendlyPos="x" id="e1det_D2D3_0" lane="D2D3_0" pos="332.01"/>
    <e1Detector file="e1output.xml" freq="60" friendlyPos="x" id="e1det_D4D3_0" lane="D4D3_0" pos="332.01"/>
    <e1Detector file="e1output.xml" freq="60" friendlyPos="x" id="e1det_E3D3_0" lane="E3D3_0" pos="83.99000000000001"/>
    <e1Detector file="e1output.xml" freq="60" friendlyPos="x" id="e1det_C4D4_0" lane="C4D4_0" pos="84.0"/>
    <e1Detector file="e1output.xml" freq="60" friendlyPos="x" id="e1det_D3D4_0" lane="D3D4_0" pos="332.01"/>
    <e1Detector file="e1output.xml" freq="60" friendlyPos="x" id="e1det_D5D4_0" lane="D5D4_0" pos="332.01"/>
    <e1Detector file="e1output.xml" freq="60" friendlyPos="x" id="e1det_E4D4_0" lane="E4D4_0" pos="83.99000000000001"/>
    <e1Detector file="e1output.xml" freq="60" friendlyPos="x" id="e1det_C5D5_0" lane="C5D5_0" pos="83.99000000000001"/>
    <e1Detector file="e1output.xml" freq="60" friendlyPos="x" id="e1det_D1D5_0" lane="D1D5_0" pos="332.02"/>
    <e1Detector file="e1output.xml" freq="60" friendlyPos="x" id="e1det_D4D5_0" lane="D4D5_0" pos="332.01"/>
    <e1Detector file="e1output.xml" freq="60" friendlyPos="x" id="e1det_E5D5_0" lane="E5D5_0" pos="83.99000000000001"/>
    <e1Detector file="e1output.xml" freq="60" friendlyPos="x" id="e1det_D1E1_0" lane="D1E1_0" pos="83.99000000000001"/>
    <e1Detector file="e1output.xml" freq="60" friendlyPos="x" id="e1det_E2E1_0" lane="E2E1_0" pos="449.56"/>
    <e1Detector file="e1output.xml" freq="60" friendlyPos="x" id="e1det_E5E1_0" lane="E5E1_0" pos="449.56"/>
    <e1Detector file="e1output.xml" freq="60" friendlyPos="x" id="e1det_F1E1_0" lane="F1E1_0" pos="83.99000000000001"/>
    <e1Detector file="e1output.xml" freq="60" friendlyPos="x" id="e1det_D2E2_0" lane="D2E2_0" pos="83.99000000000001"/>
    <e1Detector file="e1output.xml" freq="60" friendlyPos="x" id="e1det_E1E2_0" lane="E1E2_0" pos="449.56"/>
    <e1Detector file="e1output.xml" freq="60" friendlyPos="x" id="e1det_E3E2_0" lane="E3E2_0" pos="449.57"/>
    <e1Detector file="e1output.xml" freq="60" friendlyPos="x" id="e1det_F2E2_0" lane="F2E2_0" pos="83.99000000000001"/>
    <e1Detector file="e1output.xml" freq="60" friendlyPos="x" id="e1det_D3E3_0" lane="D3E3_0" pos="83.99000000000001"/>
    <e1Detector file="e1output.xml" freq="60" friendlyPos="x" id="e1det_E2E3_0" lane="E2E3_0" pos="449.57"/>
    <e1Detector file="e1output.xml" freq="60" friendlyPos="x" id="e1det_E4E3_0" lane="E4E3_0" pos="449.57"/>
    <e1Detector file="e1output.xml" freq="60" friendlyPos="x" id="e1det_F3E3_0" lane="F3E3_0" pos="83.99000000000001"/>
    <e1Detector file="e1output.xml" freq="60" friendlyPos="x" id="e1det_D4E4_0" lane="D4E4_0" pos="83.99000000000001"/>
    <e1Detector file="e1output.xml" freq="60" friendlyPos="x" id="e1det_E3E4_0" lane="E3E4_0" pos="449.57"/>
    <e1Detector file="e1output.xml" freq="60" friendlyPos="x" id="e1det_E5E4_0" lane="E5E4_0" pos="449.57"/>
    <e1Detector file="e1output.xml" freq="60" friendlyPos="x" id="e1det_F4E4_0" lane="F4E4_0" pos="83.98"/>
    <e1Detector file="e1output.xml" freq="60" friendlyPos="x" id="e1det_D5E5_0" lane="D5E5_0" pos="83.99000000000001"/>
    <e1Detector file="e1output.xml" freq="60" friendlyPos="x" id="e1det_E1E5_0" lane="E1E5_0" pos="449.56"/>
    <e1Detector file="e1output.xml" freq="60" friendlyPos="x" id="e1det_E4E5_0" lane="E4E5_0" pos="449.57"/>
    <e1Detector file="e1output.xml" freq="60" friendlyPos="x" id="e1det_F5E5_0" lane="F5E5_0" pos="83.99000000000001"/>
    <e1Detector file="e1output.xml" freq="60" friendlyPos="x" id="e1det_E1F1_0" lane="E1F1_0" pos="83.99000000000001"/>
    <e1Detector file="e1output.xml" freq="60" friendlyPos="x" id="e1det_F2F1_0" lane="F2F1_0" pos="567.12"/>
    <e1Detector file="e1output.xml" freq="60" friendlyPos="x" id="e1det_F5F1_0" lane="F5F1_0" pos="567.12"/>
    <e1Detector file="e1output.xml" freq="60" friendlyPos="x" id="e1det_E2F2_0" lane="E2F2_0" pos="83.99000000000001"/>
    <e1Detector file="e1output.xml" freq="60" friendlyPos="x" id="e1det_F1F2_0" lane="F1F2_0" pos="567.12"/>
    <e1Detector file="e1output.xml" freq="60" friendlyPos="x" id="e1det_F3F2_0" lane="F3F2_0" pos="567.13"/>
    <e1Detector file="e1output.xml" freq="60" friendlyPos="x" id="e1det_E3F3_0" lane="E3F3_0" pos="83.99000000000001"/>
    <e1Detector file="e1output.xml" freq="60" friendlyPos="x" id="e1det_F2F3_0" lane="F2F3_0" pos="567.13"/>
    <e1Detector file="e1output.xml" freq="60" friendlyPos="x" id="e1det_F4F3_0" lane="F4F3_0" pos="567.12"/>
    <e1Detector file="e1output.xml" freq="60" friendlyPos="x" id="e1det_E4F4_0" lane="E4F4_0" pos="83.98"/>
    <e1Detector file="e1output.xml" freq="60" friendlyPos="x" id="e1det_F3F4_0" lane="F3F4_0" pos="567.12"/>
    <e1Detector file="e1output.xml" freq="60" friendlyPos="x" id="e1det_F5F4_0" lane="F5F4_0" pos="567.13"/>
    <e1Detector file="e1output.xml" freq="60" friendlyPos="x" id="e1det_E5F5_0" lane="E5F5_0" pos="83.99000000000001"/>
    <e1Detector file="e1output.xml" freq="60" friendlyPos="x" id="e1det_F1F5_0" lane="F1F5_0" pos="567.12"/>
    <e1Detector file="e1output.xml" freq="60" friendlyPos="x" id="e1det_F4F5_0" lane="F4F5_0" pos="567.13"/>
</additional>
