<?xml version="1.0" encoding="UTF-8"?>

<!-- generated on 2021-11-30 11:14:30 by Eclipse SUMO netedit Version 1.10.0
<configuration xmlns:xsi="http://www.w3.org/2001/XMLSchema-instance" xsi:noNamespaceSchemaLocation="http://sumo.dlr.de/xsd/netconvertConfiguration.xsd">

    <input>
        <sumo-net-file value="C:\Users\Tino\Documents\Projektseminar\location-privacy\dummy\dummy-grid-tls.net.xml"/>
    </input>

    <output>
        <output-file value="C:\Users\Tino\Documents\Projektseminar\location-privacy\dummy\dummy-grid-tls.net.xml"/>
    </output>

    <processing>
        <geometry.min-radius.fix.railways value="false"/>
        <geometry.max-grade.fix value="false"/>
        <offset.disable-normalization value="true"/>
        <lefthand value="false"/>
    </processing>

    <junctions>
        <no-turnarounds value="true"/>
        <junctions.corner-detail value="5"/>
        <junctions.limit-turn-speed value="5.5"/>
        <rectangular-lane-cut value="false"/>
    </junctions>

    <pedestrian>
        <walkingareas value="false"/>
    </pedestrian>

    <netedit>
        <route-files value="C:\Users\Tino\Documents\Projektseminar\location-privacy\dummy\agent_generation_routes.rou.xml"/>
    </netedit>

    <report>
        <aggregate-warnings value="5"/>
    </report>

</configuration>
-->

<routes xmlns:xsi="http://www.w3.org/2001/XMLSchema-instance" xsi:noNamespaceSchemaLocation="http://sumo.dlr.de/xsd/routes_file.xsd">
    <vType id="agent0" length="2.00" maxSpeed="50.00" color="129,159,20" accel="1.0" decel="5.0" sigma="0.0"/>
    <vType id="agent1" length="2.00" maxSpeed="50.00" color="162,110,134" accel="1.0" decel="5.0" sigma="0.0"/>
    <vType id="agent10" length="2.00" maxSpeed="50.00" color="139,66,14" accel="1.0" decel="5.0" sigma="0.0"/>
    <vType id="agent11" length="2.00" maxSpeed="50.00" color="248,2,182" accel="1.0" decel="5.0" sigma="0.0"/>
    <vType id="agent12" length="2.00" maxSpeed="50.00" color="152,180,181" accel="1.0" decel="5.0" sigma="0.0"/>
    <vType id="agent13" length="2.00" maxSpeed="50.00" color="212,215,211" accel="1.0" decel="5.0" sigma="0.0"/>
    <vType id="agent14" length="2.00" maxSpeed="50.00" color="85,42,221" accel="1.0" decel="5.0" sigma="0.0"/>
    <vType id="agent15" length="2.00" maxSpeed="50.00" color="177,157,216" accel="1.0" decel="5.0" sigma="0.0"/>
    <vType id="agent16" length="2.00" maxSpeed="50.00" color="66,212,113" accel="1.0" decel="5.0" sigma="0.0"/>
    <vType id="agent17" length="2.00" maxSpeed="50.00" color="11,189,237" accel="1.0" decel="5.0" sigma="0.0"/>
    <vType id="agent18" length="2.00" maxSpeed="50.00" color="138,124,252" accel="1.0" decel="5.0" sigma="0.0"/>
    <vType id="agent19" length="2.00" maxSpeed="50.00" color="110,220,35" accel="1.0" decel="5.0" sigma="0.0"/>
    <vType id="agent2" length="2.00" maxSpeed="50.00" color="126,114,24" accel="1.0" decel="5.0" sigma="0.0"/>
    <vType id="agent20" length="2.00" maxSpeed="50.00" color="122,33,143" accel="1.0" decel="5.0" sigma="0.0"/>
    <vType id="agent21" length="2.00" maxSpeed="50.00" color="62,236,99" accel="1.0" decel="5.0" sigma="0.0"/>
    <vType id="agent22" length="2.00" maxSpeed="50.00" color="187,11,6" accel="1.0" decel="5.0" sigma="0.0"/>
    <vType id="agent23" length="2.00" maxSpeed="50.00" color="105,114,9" accel="1.0" decel="5.0" sigma="0.0"/>
    <vType id="agent24" length="2.00" maxSpeed="50.00" color="97,130,220" accel="1.0" decel="5.0" sigma="0.0"/>
    <vType id="agent25" length="2.00" maxSpeed="50.00" color="168,212,59" accel="1.0" decel="5.0" sigma="0.0"/>
    <vType id="agent26" length="2.00" maxSpeed="50.00" color="182,204,133" accel="1.0" decel="5.0" sigma="0.0"/>
    <vType id="agent27" length="2.00" maxSpeed="50.00" color="19,97,138" accel="1.0" decel="5.0" sigma="0.0"/>
    <vType id="agent28" length="2.00" maxSpeed="50.00" color="56,181,146" accel="1.0" decel="5.0" sigma="0.0"/>
    <vType id="agent29" length="2.00" maxSpeed="50.00" color="106,66,250" accel="1.0" decel="5.0" sigma="0.0"/>
    <vType id="agent3" length="2.00" maxSpeed="50.00" color="31,171,148" accel="1.0" decel="5.0" sigma="0.0"/>
    <vType id="agent30" length="2.00" maxSpeed="50.00" color="171,127,217" accel="1.0" decel="5.0" sigma="0.0"/>
    <vType id="agent31" length="2.00" maxSpeed="50.00" color="206,223,30" accel="1.0" decel="5.0" sigma="0.0"/>
    <vType id="agent32" length="2.00" maxSpeed="50.00" color="173,130,216" accel="1.0" decel="5.0" sigma="0.0"/>
    <vType id="agent33" length="2.00" maxSpeed="50.00" color="11,10,204" accel="1.0" decel="5.0" sigma="0.0"/>
    <vType id="agent34" length="2.00" maxSpeed="50.00" color="246,160,123" accel="1.0" decel="5.0" sigma="0.0"/>
    <vType id="agent35" length="2.00" maxSpeed="50.00" color="137,248,84" accel="1.0" decel="5.0" sigma="0.0"/>
    <vType id="agent36" length="2.00" maxSpeed="50.00" color="191,34,3" accel="1.0" decel="5.0" sigma="0.0"/>
    <vType id="agent37" length="2.00" maxSpeed="50.00" color="120,194,251" accel="1.0" decel="5.0" sigma="0.0"/>
    <vType id="agent38" length="2.00" maxSpeed="50.00" color="0,177,89" accel="1.0" decel="5.0" sigma="0.0"/>
    <vType id="agent39" length="2.00" maxSpeed="50.00" color="7,58,116" accel="1.0" decel="5.0" sigma="0.0"/>
    <vType id="agent4" length="2.00" maxSpeed="50.00" color="5,198,102" accel="1.0" decel="5.0" sigma="0.0"/>
    <vType id="agent40" length="2.00" maxSpeed="50.00" color="121,141,77" accel="1.0" decel="5.0" sigma="0.0"/>
    <vType id="agent41" length="2.00" maxSpeed="50.00" color="137,107,190" accel="1.0" decel="5.0" sigma="0.0"/>
    <vType id="agent42" length="2.00" maxSpeed="50.00" color="126,96,238" accel="1.0" decel="5.0" sigma="0.0"/>
    <vType id="agent43" length="2.00" maxSpeed="50.00" color="24,25,184" accel="1.0" decel="5.0" sigma="0.0"/>
    <vType id="agent44" length="2.00" maxSpeed="50.00" color="53,69,140" accel="1.0" decel="5.0" sigma="0.0"/>
    <vType id="agent45" length="2.00" maxSpeed="50.00" color="251,253,160" accel="1.0" decel="5.0" sigma="0.0"/>
    <vType id="agent46" length="2.00" maxSpeed="50.00" color="193,173,250" accel="1.0" decel="5.0" sigma="0.0"/>
    <vType id="agent47" length="2.00" maxSpeed="50.00" color="6,168,186" accel="1.0" decel="5.0" sigma="0.0"/>
    <vType id="agent48" length="2.00" maxSpeed="50.00" color="141,22,10" accel="1.0" decel="5.0" sigma="0.0"/>
    <vType id="agent49" length="2.00" maxSpeed="50.00" color="167,125,112" accel="1.0" decel="5.0" sigma="0.0"/>
    <vType id="agent5" length="2.00" maxSpeed="50.00" color="237,230,149" accel="1.0" decel="5.0" sigma="0.0"/>
    <vType id="agent50" length="2.00" maxSpeed="50.00" color="225,197,155" accel="1.0" decel="5.0" sigma="0.0"/>
    <vType id="agent51" length="2.00" maxSpeed="50.00" color="246,5,153" accel="1.0" decel="5.0" sigma="0.0"/>
    <vType id="agent52" length="2.00" maxSpeed="50.00" color="234,35,177" accel="1.0" decel="5.0" sigma="0.0"/>
    <vType id="agent53" length="2.00" maxSpeed="50.00" color="70,236,177" accel="1.0" decel="5.0" sigma="0.0"/>
    <vType id="agent54" length="2.00" maxSpeed="50.00" color="183,235,114" accel="1.0" decel="5.0" sigma="0.0"/>
    <vType id="agent55" length="2.00" maxSpeed="50.00" color="24,240,205" accel="1.0" decel="5.0" sigma="0.0"/>
    <vType id="agent56" length="2.00" maxSpeed="50.00" color="201,174,90" accel="1.0" decel="5.0" sigma="0.0"/>
    <vType id="agent57" length="2.00" maxSpeed="50.00" color="223,48,128" accel="1.0" decel="5.0" sigma="0.0"/>
    <vType id="agent58" length="2.00" maxSpeed="50.00" color="229,108,189" accel="1.0" decel="5.0" sigma="0.0"/>
    <vType id="agent59" length="2.00" maxSpeed="50.00" color="198,216,254" accel="1.0" decel="5.0" sigma="0.0"/>
    <vType id="agent6" length="2.00" maxSpeed="50.00" color="132,45,231" accel="1.0" decel="5.0" sigma="0.0"/>
    <vType id="agent60" length="2.00" maxSpeed="50.00" color="59,128,156" accel="1.0" decel="5.0" sigma="0.0"/>
    <vType id="agent61" length="2.00" maxSpeed="50.00" color="181,113,234" accel="1.0" decel="5.0" sigma="0.0"/>
    <vType id="agent62" length="2.00" maxSpeed="50.00" color="5,65,59" accel="1.0" decel="5.0" sigma="0.0"/>
    <vType id="agent63" length="2.00" maxSpeed="50.00" color="218,236,96" accel="1.0" decel="5.0" sigma="0.0"/>
    <vType id="agent64" length="2.00" maxSpeed="50.00" color="32,107,215" accel="1.0" decel="5.0" sigma="0.0"/>
    <vType id="agent65" length="2.00" maxSpeed="50.00" color="225,126,54" accel="1.0" decel="5.0" sigma="0.0"/>
    <vType id="agent66" length="2.00" maxSpeed="50.00" color="255,184,77" accel="1.0" decel="5.0" sigma="0.0"/>
    <vType id="agent67" length="2.00" maxSpeed="50.00" color="43,159,150" accel="1.0" decel="5.0" sigma="0.0"/>
    <vType id="agent68" length="2.00" maxSpeed="50.00" color="245,251,113" accel="1.0" decel="5.0" sigma="0.0"/>
    <vType id="agent69" length="2.00" maxSpeed="50.00" color="74,108,39" accel="1.0" decel="5.0" sigma="0.0"/>
    <vType id="agent7" length="2.00" maxSpeed="50.00" color="251,84,80" accel="1.0" decel="5.0" sigma="0.0"/>
    <vType id="agent70" length="2.00" maxSpeed="50.00" color="94,113,239" accel="1.0" decel="5.0" sigma="0.0"/>
    <vType id="agent71" length="2.00" maxSpeed="50.00" color="63,1,153" accel="1.0" decel="5.0" sigma="0.0"/>
    <vType id="agent72" length="2.00" maxSpeed="50.00" color="172,12,109" accel="1.0" decel="5.0" sigma="0.0"/>
    <vType id="agent73" length="2.00" maxSpeed="50.00" color="30,141,116" accel="1.0" decel="5.0" sigma="0.0"/>
    <vType id="agent74" length="2.00" maxSpeed="50.00" color="111,141,167" accel="1.0" decel="5.0" sigma="0.0"/>
    <vType id="agent75" length="2.00" maxSpeed="50.00" color="107,249,61" accel="1.0" decel="5.0" sigma="0.0"/>
    <vType id="agent76" length="2.00" maxSpeed="50.00" color="238,94,252" accel="1.0" decel="5.0" sigma="0.0"/>
    <vType id="agent77" length="2.00" maxSpeed="50.00" color="211,178,200" accel="1.0" decel="5.0" sigma="0.0"/>
    <vType id="agent78" length="2.00" maxSpeed="50.00" color="165,29,177" accel="1.0" decel="5.0" sigma="0.0"/>
    <vType id="agent79" length="2.00" maxSpeed="50.00" color="67,26,77" accel="1.0" decel="5.0" sigma="0.0"/>
    <vType id="agent8" length="2.00" maxSpeed="50.00" color="198,148,51" accel="1.0" decel="5.0" sigma="0.0"/>
    <vType id="agent80" length="2.00" maxSpeed="50.00" color="60,19,168" accel="1.0" decel="5.0" sigma="0.0"/>
    <vType id="agent81" length="2.00" maxSpeed="50.00" color="63,88,134" accel="1.0" decel="5.0" sigma="0.0"/>
    <vType id="agent82" length="2.00" maxSpeed="50.00" color="33,88,70" accel="1.0" decel="5.0" sigma="0.0"/>
    <vType id="agent83" length="2.00" maxSpeed="50.00" color="254,93,29" accel="1.0" decel="5.0" sigma="0.0"/>
    <vType id="agent84" length="2.00" maxSpeed="50.00" color="139,223,48" accel="1.0" decel="5.0" sigma="0.0"/>
    <vType id="agent85" length="2.00" maxSpeed="50.00" color="120,243,48" accel="1.0" decel="5.0" sigma="0.0"/>
    <vType id="agent86" length="2.00" maxSpeed="50.00" color="226,5,227" accel="1.0" decel="5.0" sigma="0.0"/>
    <vType id="agent87" length="2.00" maxSpeed="50.00" color="217,249,235" accel="1.0" decel="5.0" sigma="0.0"/>
    <vType id="agent88" length="2.00" maxSpeed="50.00" color="238,234,23" accel="1.0" decel="5.0" sigma="0.0"/>
    <vType id="agent89" length="2.00" maxSpeed="50.00" color="214,58,8" accel="1.0" decel="5.0" sigma="0.0"/>
    <vType id="agent9" length="2.00" maxSpeed="50.00" color="7,210,64" accel="1.0" decel="5.0" sigma="0.0"/>
    <vType id="agent90" length="2.00" maxSpeed="50.00" color="66,196,24" accel="1.0" decel="5.0" sigma="0.0"/>
    <vType id="agent91" length="2.00" maxSpeed="50.00" color="212,108,166" accel="1.0" decel="5.0" sigma="0.0"/>
    <vType id="agent92" length="2.00" maxSpeed="50.00" color="201,89,37" accel="1.0" decel="5.0" sigma="0.0"/>
    <vType id="agent93" length="2.00" maxSpeed="50.00" color="112,178,68" accel="1.0" decel="5.0" sigma="0.0"/>
    <vType id="agent94" length="2.00" maxSpeed="50.00" color="52,36,224" accel="1.0" decel="5.0" sigma="0.0"/>
    <vType id="agent95" length="2.00" maxSpeed="50.00" color="232,41,45" accel="1.0" decel="5.0" sigma="0.0"/>
    <vType id="agent96" length="2.00" maxSpeed="50.00" color="200,114,145" accel="1.0" decel="5.0" sigma="0.0"/>
    <vType id="agent97" length="2.00" maxSpeed="50.00" color="227,213,31" accel="1.0" decel="5.0" sigma="0.0"/>
    <vType id="agent98" length="2.00" maxSpeed="50.00" color="46,250,141" accel="1.0" decel="5.0" sigma="0.0"/>
    <vType id="agent99" length="2.00" maxSpeed="50.00" color="74,184,24" accel="1.0" decel="5.0" sigma="0.0"/>
    <trip id="0d6b872f-1180-4d03-85a8-0b82da0cfd6d" type="agent14" depart="0.00" from="A0A1" to="C2C1"/>
    <trip id="0e11fdf3-fea4-45d0-bc29-b59af533f0c6" type="agent55" depart="0.00" from="A0B0" to="C2C1"/>
    <trip id="13931b85-7814-4052-9a2d-e79a658eb7d1" type="agent26" depart="0.00" from="A0A1" to="C3D3"/>
    <trip id="14b65a63-f87a-4060-af46-188deec8f7de" type="agent67" depart="0.00" from="A0B0" to="B1B0"/>
    <trip id="160f3244-3dbd-426a-a756-f0fbe98da948" type="agent70" depart="0.00" from="A0A1" to="C3B3"/>
    <trip id="1af9af5e-ebe8-48cd-aea2-c385947ea537" type="agent3" depart="0.00" from="A0A1" to="D1C1"/>
    <trip id="1ff1ca25-d042-4ddd-9198-080a14b23872" type="agent64" depart="0.00" from="A0B0" to="B3C3"/>
    <trip id="21024cea-9cc7-421a-a820-5c8993135102" type="agent10" depart="0.00" from="A0B0" to="D1D2"/>
    <trip id="251603a6-4ddc-4e03-8faf-099c200b62c7" type="agent88" depart="0.00" from="A0A1" to="C2C3"/>
    <trip id="2531bf57-f7c4-488d-8df3-997c9e534eb7" type="agent74" depart="0.00" from="A0A1" to="B0C0"/>
    <trip id="280db591-05eb-4649-8088-df8e11e5d40e" type="agent89" depart="0.00" from="A0A1" to="B2C2"/>
    <trip id="286d857d-e7ba-441f-8a02-ddb0b3916c60" type="agent57" depart="0.00" from="A0B0" to="B2C2"/>
    <trip id="2a7e1a1b-d72a-46f1-a26b-2c09fbd294d0" type="agent11" depart="0.00" from="A0B0" to="A3A2"/>
    <trip id="2c95cedb-dfda-46a2-a2a2-622c96e4e7df" type="agent75" depart="0.00" from="A0B0" to="B2B3"/>
    <trip id="2e95b2e1-af61-44b5-8d30-fa0715b32794" type="agent15" depart="0.00" from="A0A1" to="D1C1"/>
    <trip id="2fdf77fd-947d-451e-8d28-dcd44189e67f" type="agent53" depart="0.00" from="A0B0" to="C0D0"/>
    <trip id="307a8c23-d4d3-48d2-a633-016ab07e97b0" type="agent29" depart="0.00" from="A0B0" to="C0B0"/>
    <trip id="328e171c-1c18-46fa-8041-538ff1727b10" type="agent86" depart="0.00" from="A0B0" to="C0D0"/>
    <trip id="3ae68e9d-e304-442a-b70b-ca8b78c0f6d6" type="agent31" depart="0.00" from="A0B0" to="B2C2"/>
    <trip id="3b1f83e7-0c3d-4510-b67c-b75b488987ef" type="agent44" depart="0.00" from="A0B0" to="C1C0"/>
    <trip id="3c03afc4-3b15-4939-beab-fbdb14a9a680" type="agent35" depart="0.00" from="A0A1" to="C1C2"/>
    <trip id="3d85cc7d-6d6e-42ef-a716-17b11bfcf4a0" type="agent84" depart="0.00" from="A0B0" to="D3D2"/>
    <trip id="41c5d5f5-9de3-4963-95bf-56227b6ca4e7" type="agent96" depart="0.00" from="A0A1" to="A2B2"/>
    <trip id="42f83820-2020-4796-9afd-61821336d1ed" type="agent12" depart="0.00" from="A0B0" to="C2C3"/>
    <trip id="460bd6c2-c0b6-49a5-99e8-c99d8b1d0fce" type="agent2" depart="0.00" from="A0A1" to="B3B2"/>
    <trip id="4b246c63-d95c-4202-8e07-3879980eded1" type="agent68" depart="0.00" from="A0B0" to="D2C2"/>
    <trip id="4ea823b2-b29b-4d83-9d06-80c6f46c67a0" type="agent0" depart="0.00" from="A0B0" to="B3C3"/>
    <trip id="512c7e2f-098a-412e-a206-82ba2ccf6717" type="agent48" depart="0.00" from="A0A1" to="C2C1"/>
    <trip id="5379fad9-66be-4924-977a-a15329cbd96a" type="agent18" depart="0.00" from="A0A1" to="B1C1"/>
    <trip id="538859cb-062d-43fe-a26a-61d313732c66" type="agent78" depart="0.00" from="A0B0" to="B3A3"/>
    <trip id="53c57f04-9016-49c9-9ffb-8a14daf97811" type="agent97" depart="0.00" from="A0A1" to="B3B2"/>
    <trip id="53cf871f-1b33-4fca-9b4d-1477d3195c49" type="agent76" depart="0.00" from="A0A1" to="D0C0"/>
    <trip id="54f1f306-054e-44cc-838c-3a5f488fc098" type="agent85" depart="0.00" from="A0A1" to="C2C1"/>
    <trip id="56be887e-c754-4e9b-a940-20c91e83bece" type="agent63" depart="0.00" from="A0B0" to="C0B0"/>
    <trip id="56c4fcd5-cddf-4362-a092-81a2a3478e32" type="agent7" depart="0.00" from="A0A1" to="C1D1"/>
    <trip id="58445f07-6b48-457b-ad99-d4dbdc56b4b9" type="agent93" depart="0.00" from="A0B0" to="A1B1"/>
    <trip id="58814852-36a7-4619-9dd3-20b451a75ee0" type="agent98" depart="0.00" from="A0B0" to="D0C0"/>
    <trip id="5a7b5f94-0902-4ff7-8cc7-050348002e91" type="agent43" depart="0.00" from="A0A1" to="D1C1"/>
    <trip id="5c031f0f-7ff3-47ee-92d6-c90edfe7f28e" type="agent92" depart="0.00" from="A0A1" to="A2B2"/>
    <trip id="6428a19b-0ead-4455-93ff-cad770deda77" type="agent73" depart="0.00" from="A0A1" to="C1C0"/>
    <trip id="66211c2a-3aa4-403a-89cf-565b4b29c142" type="agent59" depart="0.00" from="A0A1" to="B3B2"/>
    <trip id="669e97d2-db73-4c61-8418-da966129af3a" type="agent50" depart="0.00" from="A0B0" to="C2B2"/>
    <trip id="68f7aa5a-2683-4084-aebb-76ef3122207e" type="agent28" depart="0.00" from="A0B0" to="B1B0"/>
    <trip id="692f5c85-2cb7-44d6-8abd-df2bcf79ec45" type="agent72" depart="0.00" from="A0B0" to="B1C1"/>
    <trip id="698f28aa-06db-4c49-b617-e93601c0538d" type="agent42" depart="0.00" from="A0B0" to="C3D3"/>
    <trip id="6b0c3ba5-6701-492c-891c-d2f5a4eddea8" type="agent19" depart="0.00" from="A0B0" to="C2C1"/>
    <trip id="6b1a2285-c8d8-472c-b562-3a5aaf760480" type="agent69" depart="0.00" from="A0A1" to="C2C3"/>
    <trip id="6daa55ac-2417-4f4b-8052-78ca9f2c5e4d" type="agent22" depart="0.00" from="A0A1" to="D1D0"/>
    <trip id="6dfca8c1-9ef6-4171-b617-5d3545fe8474" type="agent51" depart="0.00" from="A0B0" to="C0C1"/>
    <trip id="70611eb6-5248-475d-a3a1-02122afdebab" type="agent58" depart="0.00" from="A0A1" to="D1C1"/>
    <trip id="72f0474c-1c5f-43dd-b70a-2a062c0ba781" type="agent13" depart="0.00" from="A0B0" to="B2A2"/>
    <trip id="732cc169-0145-4a29-8bbd-66c3533c6366" type="agent56" depart="0.00" from="A0A1" to="C3C2"/>
    <trip id="760fa3f1-ad3f-4453-b5c3-191d96e5d30b" type="agent41" depart="0.00" from="A0B0" to="C1C2"/>
    <trip id="7675916a-ffed-4f9a-a92f-18681df44883" type="agent4" depart="0.00" from="A0B0" to="B2C2"/>
    <trip id="779cd9f6-597c-4939-b7d6-aa365c20ff6b" type="agent45" depart="0.00" from="A0B0" to="A2A1"/>
    <trip id="79522023-f685-4a9a-a73d-1525b525512a" type="agent6" depart="0.00" from="A0B0" to="B1B2"/>
    <trip id="7d4503bd-ba6d-46e6-9451-97b610452fa7" type="agent87" depart="0.00" from="A0B0" to="D0C0"/>
    <trip id="7e812c19-ffc8-4cae-9dba-48fd90c76f90" type="agent21" depart="0.00" from="A0A1" to="C3B3"/>
    <trip id="80aee277-41bf-4c9c-baa0-e0f513209178" type="agent9" depart="0.00" from="A0A1" to="B2B3"/>
    <trip id="82883052-c179-4ac4-9c33-745eac3438e8" type="agent34" depart="0.00" from="A0A1" to="C2B2"/>
    <trip id="848902f2-6310-42e9-a403-4fb04c215f35" type="agent99" depart="0.00" from="A0A1" to="B0B1"/>
    <trip id="86c767ad-425b-4967-b274-9d2b026e6477" type="agent54" depart="0.00" from="A0A1" to="C2C1"/>
    <trip id="8c63e2f1-5ab3-47bd-8520-0a60f9cd3eea" type="agent20" depart="0.00" from="A0A1" to="C0D0"/>
    <trip id="9405636f-873d-4a15-8949-629da111a87d" type="agent83" depart="0.00" from="A0A1" to="B3C3"/>
    <trip id="95ed6170-b6c3-4940-9775-b32f6118f596" type="agent47" depart="0.00" from="A0A1" to="A1A0"/>
    <trip id="97644c5b-a177-4694-b7b0-68567d5c204d" type="agent90" depart="0.00" from="A0B0" to="C3B3"/>
    <trip id="98741fa4-7fa2-45f3-82dc-eec6788461c1" type="agent60" depart="0.00" from="A0B0" to="C0B0"/>
    <trip id="98f0b86d-208b-4ada-95a8-6398756dbcf7" type="agent77" depart="0.00" from="A0A1" to="C2C1"/>
    <trip id="9a3a84f9-a08c-415e-804d-bace97e89471" type="agent79" depart="0.00" from="A0B0" to="D1C1"/>
    <trip id="a6e8215a-6086-4eb2-a429-243a2c2d1937" type="agent46" depart="0.00" from="A0B0" to="D1C1"/>
    <trip id="aa51885c-edca-45a6-8e1d-7194f58f6ee2" type="agent32" depart="0.00" from="A0B0" to="B2C2"/>
    <trip id="b2ed3410-3e88-473f-8df7-ef00fa5be782" type="agent94" depart="0.00" from="A0A1" to="B1A1"/>
    <trip id="b4a7410e-2076-48e7-a1c4-dbe6ff0ff12b" type="agent38" depart="0.00" from="A0A1" to="B0B1"/>
    <trip id="c4a6e2aa-2eb2-4b4e-8f52-cb7626726515" type="agent65" depart="0.00" from="A0B0" to="B1A1"/>
    <trip id="c7a43767-ab11-4cec-a58b-a8b5c399313b" type="agent27" depart="0.00" from="A0A1" to="D1D0"/>
    <trip id="c94141f1-c159-4fa2-b314-08db05ea4ae5" type="agent25" depart="0.00" from="A0B0" to="B1C1"/>
    <trip id="c9b775b1-eb15-4ade-bb6b-7d76ff2be710" type="agent91" depart="0.00" from="A0A1" to="C0D0"/>
    <trip id="ca9cc994-5b7d-443f-911c-34e425e133d0" type="agent30" depart="0.00" from="A0B0" to="B0A0"/>
    <trip id="d1a49270-d08d-4ebe-8c58-a5acc2d3d8d7" type="agent82" depart="0.00" from="A0A1" to="A2A3"/>
    <trip id="d3dc2cf2-0a09-42c6-a938-240f82abcde8" type="agent52" depart="0.00" from="A0B0" to="D3D2"/>
    <trip id="d505d1e6-e981-4752-8db7-0542fbfd51fd" type="agent1" depart="0.00" from="A0A1" to="D0D1"/>
    <trip id="d77a51ac-5ab3-4928-8916-e30ffec650af" type="agent40" depart="0.00" from="A0B0" to="B1A1"/>
    <trip id="d89d2af9-64cc-4556-adc6-0e62ba712f76" type="agent61" depart="0.00" from="A0A1" to="B0B1"/>
    <trip id="da66515e-8dcb-42c1-b6ad-7d3ee3028124" type="agent8" depart="0.00" from="A0A1" to="B0C0"/>
    <trip id="da86961c-2a2d-459e-a6d1-e0c23272e461" type="agent71" depart="0.00" from="A0A1" to="C1C2"/>
    <trip id="dc0abcc0-e451-4ca6-8472-9a1e6fd27317" type="agent36" depart="0.00" from="A0B0" to="A1A2"/>
    <trip id="dfcd0469-12ca-43a3-aa14-ac1ce4c7f1cb" type="agent24" depart="0.00" from="A0A1" to="B3C3"/>
    <trip id="e3ed710b-c42d-4be7-bea9-3aaefddc2700" type="agent62" depart="0.00" from="A0B0" to="A0A1"/>
    <trip id="e5210eae-3ba3-48c4-adc6-8dccef911381" type="agent17" depart="0.00" from="A0B0" to="B2B3"/>
    <trip id="e5e860e7-c639-4251-bbcc-34b97965e191" type="agent66" depart="0.00" from="A0A1" to="A2A1"/>
    <trip id="e83b0b6a-a2c4-4ef4-bd79-d8d96cb8ef9b" type="agent23" depart="0.00" from="A0B0" to="C3C2"/>
    <trip id="ec8d13a8-0cef-4a7c-a2fa-a91021c97b65" type="agent95" depart="0.00" from="A0B0" to="A2A3"/>
    <trip id="eeb513f1-b6bb-45a7-a3ce-62cb0ee1f58a" type="agent39" depart="0.00" from="A0A1" to="B2B3"/>
    <trip id="f4475872-c930-4f0a-8dc5-6f0f8cdfd3dc" type="agent37" depart="0.00" from="A0B0" to="A3B3"/>
    <trip id="f47dbc22-0b0f-498b-b93e-00b4838b409e" type="agent16" depart="0.00" from="A0B0" to="A1A2"/>
    <trip id="f5eb78bc-73ac-45b1-9371-a8848224ef98" type="agent80" depart="0.00" from="A0A1" to="D1D0"/>
    <trip id="f9b1c333-39fe-4cd2-94df-364f2f596d6b" type="agent33" depart="0.00" from="A0A1" to="D0C0"/>
    <trip id="fb1ad2a1-329f-49f2-881d-54c0225aa613" type="agent5" depart="0.00" from="A0A1" to="C1D1"/>
    <trip id="fd2d02b2-9038-498c-83fc-2f6109a26be9" type="agent49" depart="0.00" from="A0B0" to="C0B0"/>
    <trip id="fd89f09f-ca3b-421b-b2ae-1ecd159a1ed5" type="agent81" depart="0.00" from="A0A1" to="D3C3"/>
    <trip id="e60b8008-a8e5-4435-9f29-d645d43f982b" type="agent88" depart="79.00" from="C2C3" to="D1D0"/>
    <trip id="47bd14f8-57ff-4cea-8df0-3865a078cf72" type="agent81" depart="80.00" from="D3C3" to="D3D2"/>
    <trip id="7995f881-c10b-41a3-8c31-3400f4091e59" type="agent62" depart="81.00" from="A0A1" to="C0D0"/>
    <trip id="5f6a7f6e-18cb-4353-88ee-b8c70326f59d" type="agent34" depart="85.00" from="C2B2" to="D3D2"/>
    <trip id="84359cff-65fc-460b-9922-beca72081cf5" type="agent71" depart="85.00" from="C1C2" to="C0D0"/>
    <trip id="81d20b1f-06b3-495a-a040-2feaae188bb3" type="agent82" depart="86.00" from="A2A3" to="B2B1"/>
    <trip id="0d4d28f7-ec32-4dfc-90da-51ef7cc097d0" type="agent0" depart="88.00" from="B3C3" to="C2C1"/>
    <trip id="cce023c8-1ff2-49ec-8131-8fa9a397b607" type="agent99" depart="88.00" from="B0B1" to="A3B3"/>
    <trip id="159d1e20-560a-4eac-bf73-49dd46e2b3c0" type="agent48" depart="91.00" from="C2C1" to="C3D3"/>
    <trip id="726c33b4-b491-40f1-9e20-fb50686fb339" type="agent72" depart="94.00" from="B1C1" to="C1C0"/>
    <trip id="cdfbcea4-ac1f-4b17-abe0-806c3ad4e658" type="agent11" depart="94.00" from="A3A2" to="C3B3"/>
    <trip id="08764352-8814-4423-b38b-14a31658cca2" type="agent42" depart="96.00" from="C3D3" to="A2B2"/>
    <trip id="1640e74a-a38d-4c19-9529-59aa52e25fab" type="agent68" depart="97.00" from="D2C2" to="D1D0"/>
    <trip id="5646ed9f-4274-4f18-9363-6638ed9a0dc4" type="agent55" depart="98.00" from="C2C1" to="C3D3"/>
    <trip id="a1556e7f-5fc7-4aa3-9c11-e84fd0ab780f" type="agent29" depart="98.00" from="C0B0" to="B2B1"/>
    <trip id="8c1ec126-be23-49fa-9c8e-a9b040cab325" type="agent44" depart="100.00" from="C1C0" to="B1C1"/>
    <trip id="116d3ad0-e8bb-4635-8d73-b38197cdebb7" type="agent92" depart="102.00" from="A2B2" to="B2B1"/>
    <trip id="99cd4a01-5c34-4a1b-85db-3b871916758e" type="agent9" depart="102.00" from="B2B3" to="C3C2"/>
    <trip id="dbd7d606-1d30-41c2-a4d1-3826ea0d984c" type="agent20" depart="104.00" from="C0D0" to="C0C1"/>
    <trip id="1f053621-54cd-4d07-b7c7-4b9bf94458b4" type="agent36" depart="107.00" from="A1A2" to="A2B2"/>
    <trip id="e5a5a362-7f00-46c7-b84b-2d66f92b3881" type="agent33" depart="108.00" from="D0C0" to="B3B2"/>
    <trip id="bb2bdde8-5d83-435b-b552-cd54e7ea9a3b" type="agent1" depart="110.00" from="D0D1" to="C1B1"/>
    <trip id="f5684672-4d94-4017-b88a-4d3677c76102" type="agent4" depart="113.00" from="B2C2" to="B1B2"/>
    <trip id="311e0042-9113-4336-b342-e69df886542f" type="agent17" depart="114.00" from="B2B3" to="B2A2"/>
    <trip id="8bb6ca66-fc48-4f0d-be23-66988741fc49" type="agent60" depart="114.00" from="C0B0" to="A1B1"/>
    <trip id="17d08482-8437-4180-98bd-65f6fb3424bb" type="agent95" depart="117.00" from="A2A3" to="B1B0"/>
    <trip id="7934f1ae-8cae-49e9-9da4-1a7861a563b5" type="agent83" depart="117.00" from="B3C3" to="A1A2"/>
    <trip id="84d64ffd-c6e7-4841-9aa6-5b723892448a" type="agent69" depart="117.00" from="C2C3" to="B3C3"/>
    <trip id="f705d2ec-2d9d-46f2-bf96-9aeff68b993a" type="agent23" depart="118.00" from="C3C2" to="B0B1"/>
    <trip id="11959e90-ad06-46d5-ac24-78ff53b9ad38" type="agent32" depart="119.00" from="B2C2" to="B3C3"/>
    <trip id="e924f387-3172-496f-8832-6002bab8e53f" type="agent27" depart="119.00" from="D1D0" to="D3D2"/>
    <trip id="2410a5bc-d464-477a-94f0-9343e1973dac" type="agent40" depart="120.00" from="B1A1" to="C0D0"/>
    <trip id="14e18482-91c5-47b8-825f-5d3a70c31a8b" type="agent52" depart="121.00" from="D3D2" to="C1B1"/>
    <trip id="843969db-6d70-407f-b039-d435f285b51d" type="agent46" depart="121.00" from="D1C1" to="C3B3"/>
    <trip id="d8159b3d-8c51-4873-ad20-60d49f24108d" type="agent53" depart="121.00" from="C0D0" to="A2A1"/>
    <trip id="d7d5ef65-fe43-455d-96dd-b2ee0b17a04a" type="agent12" depart="122.00" from="C2C3" to="D1C1"/>
    <trip id="a9bccafd-99bc-4dd7-aae7-8724fe3cd1e4" type="agent77" depart="123.00" from="C2C1" to="D1D0"/>
    <trip id="47c05a62-ba64-48fd-aaba-3d0be5b31579" type="agent16" depart="124.00" from="A1A2" to="B0B1"/>
    <trip id="9f63ef99-edd8-4016-b3c6-4ef874b4af60" type="agent22" depart="125.00" from="D1D0" to="C2B2"/>
    <trip id="028a0150-fcca-4c50-82c7-ee3c3395c341" type="agent35" depart="126.00" from="C1C2" to="B3A3"/>
    <trip id="7558b89d-355c-4905-b410-721fcd1a8ff3" type="agent3" depart="126.00" from="D1C1" to="A1A0"/>
    <trip id="e79bd389-29db-4c46-96a1-c46a61aa1469" type="agent25" depart="128.00" from="B1C1" to="C1B1"/>
    <trip id="4d90bafe-11b9-44f8-af53-93cdc3ac28ff" type="agent19" depart="133.00" from="C2C1" to="B0B1"/>
    <trip id="327709c4-1faa-41bf-9cf7-9b419c6d4811" type="agent97" depart="134.00" from="B3B2" to="D1D0"/>
    <trip id="c3a2985e-0004-4364-9654-5a6abf357327" type="agent47" depart="135.00" from="A1A0" to="A0A1"/>
    <trip id="628ab9c3-6495-45bf-8a48-8543828c5cbc" type="agent21" depart="136.00" from="C3B3" to="D2D3"/>
    <trip id="83e407a9-3ec2-4392-bfeb-29d8090c10a3" type="agent45" depart="136.00" from="A2A1" to="B2B1"/>
    <trip id="d03ab850-a098-40f9-a1ee-4869922b99c0" type="agent86" depart="136.00" from="C0D0" to="B0C0"/>
    <trip id="3d8a8a50-3b0b-4a23-a05f-d8a244ff4390" type="agent59" depart="137.00" from="B3B2" to="B1A1"/>
    <trip id="fcdde5c4-6d6e-4a40-b908-7c3bab4d28ab" type="agent85" depart="138.00" from="C2C1" to="C0C1"/>
    <trip id="77be3dbb-7184-4214-84f2-e661e66eb7cc" type="agent28" depart="146.00" from="B1B0" to="D2C2"/>
    <trip id="cad16422-b04d-4869-8ae6-1afadc54568c" type="agent63" depart="146.00" from="C0B0" to="A2B2"/>
    <trip id="187893ef-b470-4ae3-94d3-1c6f79410382" type="agent13" depart="148.00" from="B2A2" to="A3B3"/>
    <trip id="850ebbbd-b3f4-4157-9758-aab00e029d09" type="agent7" depart="148.00" from="C1D1" to="C1C0"/>
    <trip id="14454574-130b-4251-bec9-b131a6a33de2" type="agent37" depart="149.00" from="A3B3" to="D3D2"/>
    <trip id="f2befa5e-6026-4acb-9c0c-96a3cab762cb" type="agent30" depart="152.00" from="B0A0" to="C0D0"/>
    <trip id="544087fd-c9a6-4484-a0be-450a103518ae" type="agent24" depart="155.00" from="B3C3" to="A1A0"/>
    <trip id="d30fae72-4ddc-4ebf-83e7-596cafb2077c" type="agent70" depart="155.00" from="C3B3" to="C2C1"/>
    <trip id="ee7650cd-1891-4e4e-9ae6-3c724f4cb6ad" type="agent8" depart="157.00" from="B0C0" to="A2A3"/>
    <trip id="81856d0f-f950-40d2-bf05-56a93bd667ea" type="agent80" depart="158.00" from="D1D0" to="B1B2"/>
    <trip id="ad1e0e03-ec9c-44a5-8eff-5feecd044b55" type="agent90" depart="161.00" from="C3B3" to="C1C0"/>
    <trip id="08534825-376c-474c-9cc2-5b62604ed1dc" type="agent81" depart="163.00" from="D3D2" to="B2A2"/>
    <trip id="8c6ea8be-96f2-4071-b6df-b92dd69626bb" type="agent98" depart="163.00" from="D0C0" to="B3A3"/>
    <trip id="949df119-53d2-45d2-8920-4d482de36034" type="agent57" depart="166.00" from="B2C2" to="A0A1"/>