<configuration>
  <input>
    <net-file value="dummy-grid.net.xml"/>
    <route-files value="dummy-rout.rou.xml"/>
	<additional-files value="dummy-detectors.add.xml"/>
  </input>
  <!-- <time>
    <begin value="0"/>
    <end value="10000"/>
  </time> -->
   <output>
     <fcd-output value="dummy-grid.output.xml"/>
   </output>
</configuration>
