<routes>

	<vType id="agent0" accel="1.0" decel="5.0" length="2.0" maxSpeed="50.0" sigma="0.0" color="0.8186539357910899,0.7689160728857983,0.7527298405068719"/>
	<vType id="agent1" accel="1.0" decel="5.0" length="2.0" maxSpeed="50.0" sigma="0.0" color="0.5987096560194303,0.13244321231193357,0.7024669336547384"/>
	<vType id="agent2" accel="1.0" decel="5.0" length="2.0" maxSpeed="50.0" sigma="0.0" color="0.7360229042315525,0.5906078286024916,0.40646153063945467"/>
	<vType id="agent3" accel="1.0" decel="5.0" length="2.0" maxSpeed="50.0" sigma="0.0" color="0.1054124747080073,0.8109261560129896,0.20028835083108776"/>
	<vType id="agent4" accel="1.0" decel="5.0" length="2.0" maxSpeed="50.0" sigma="0.0" color="0.4354111240515466,0.47589490834604997,0.6266627845399645"/>
	<vType id="agent5" accel="1.0" decel="5.0" length="2.0" maxSpeed="50.0" sigma="0.0" color="0.6857303895474924,0.9125412813234963,0.797338088504688"/>
	<vType id="agent6" accel="1.0" decel="5.0" length="2.0" maxSpeed="50.0" sigma="0.0" color="0.8011358505574866,0.43600131059326575,0.12766322073541447"/>
	<vType id="agent7" accel="1.0" decel="5.0" length="2.0" maxSpeed="50.0" sigma="0.0" color="0.9345179695098932,0.9562645407107884,0.8562602967178514"/>
	<vType id="agent8" accel="1.0" decel="5.0" length="2.0" maxSpeed="50.0" sigma="0.0" color="0.5543451817454923,0.26465330444085655,0.5412240077201438"/>
	<vType id="agent9" accel="1.0" decel="5.0" length="2.0" maxSpeed="50.0" sigma="0.0" color="0.43588003610149806,0.9315852542408036,0.8041515154246969"/>
	<vType id="agent10" accel="1.0" decel="5.0" length="2.0" maxSpeed="50.0" sigma="0.0" color="0.19908754991398536,0.9522583418284865,0.22421386541761168"/>
	<vType id="agent11" accel="1.0" decel="5.0" length="2.0" maxSpeed="50.0" sigma="0.0" color="0.16342239512917822,0.15532378270213065,0.22176551452240723"/>
	<vType id="agent12" accel="1.0" decel="5.0" length="2.0" maxSpeed="50.0" sigma="0.0" color="0.1861446034811255,0.24689613266310262,0.5842827847009047"/>
	<vType id="agent13" accel="1.0" decel="5.0" length="2.0" maxSpeed="50.0" sigma="0.0" color="0.5264452364118324,0.4450819724076768,0.2835879062422383"/>
	<vType id="agent14" accel="1.0" decel="5.0" length="2.0" maxSpeed="50.0" sigma="0.0" color="0.9632439928567762,0.09769528649221504,0.10923282009622315"/>
	<vType id="agent15" accel="1.0" decel="5.0" length="2.0" maxSpeed="50.0" sigma="0.0" color="0.4875224746396437,0.7248287564512312,0.22288320165957565"/>
	<vType id="agent16" accel="1.0" decel="5.0" length="2.0" maxSpeed="50.0" sigma="0.0" color="0.1263734178793211,0.32875657115089507,0.014751325191613374"/>
	<vType id="agent17" accel="1.0" decel="5.0" length="2.0" maxSpeed="50.0" sigma="0.0" color="0.9285499867277885,0.8135832392893624,0.4224831328197861"/>
	<vType id="agent18" accel="1.0" decel="5.0" length="2.0" maxSpeed="50.0" sigma="0.0" color="0.4242179399158046,0.7206392906324176,0.040333761196142404"/>
	<vType id="agent19" accel="1.0" decel="5.0" length="2.0" maxSpeed="50.0" sigma="0.0" color="0.7700991311853075,0.9089151792464613,0.11293982429418858"/>
	<vType id="agent20" accel="1.0" decel="5.0" length="2.0" maxSpeed="50.0" sigma="0.0" color="0.991503660123828,0.04705270258947958,0.9137963081340181"/>
	<vType id="agent21" accel="1.0" decel="5.0" length="2.0" maxSpeed="50.0" sigma="0.0" color="0.18962138104057236,0.4520825792764912,0.9188796580055667"/>
	<vType id="agent22" accel="1.0" decel="5.0" length="2.0" maxSpeed="50.0" sigma="0.0" color="0.22942950724236932,0.06956439295570382,0.7721165454144316"/>
	<vType id="agent23" accel="1.0" decel="5.0" length="2.0" maxSpeed="50.0" sigma="0.0" color="0.5565558414107081,0.24634975424918248,0.6910966790671391"/>
	<vType id="agent24" accel="1.0" decel="5.0" length="2.0" maxSpeed="50.0" sigma="0.0" color="0.44419379535100767,0.42270382682297825,0.5172107373594166"/>
	<vType id="agent25" accel="1.0" decel="5.0" length="2.0" maxSpeed="50.0" sigma="0.0" color="0.26904312932354424,0.16129166530656114,0.20208724638400732"/>
	<vType id="agent26" accel="1.0" decel="5.0" length="2.0" maxSpeed="50.0" sigma="0.0" color="0.4467597230646,0.3345089879868266,0.7708248832266229"/>
	<vType id="agent27" accel="1.0" decel="5.0" length="2.0" maxSpeed="50.0" sigma="0.0" color="0.2778927224590224,0.32210771972731045,0.6321562765313333"/>
	<vType id="agent28" accel="1.0" decel="5.0" length="2.0" maxSpeed="50.0" sigma="0.0" color="0.5253322548453361,0.28567422167729195,0.8320705710255396"/>
	<vType id="agent29" accel="1.0" decel="5.0" length="2.0" maxSpeed="50.0" sigma="0.0" color="0.15588141225622276,0.8086356733528564,0.6107314309638978"/>
	<vType id="agent30" accel="1.0" decel="5.0" length="2.0" maxSpeed="50.0" sigma="0.0" color="0.13794112703516825,0.9285458778513284,0.8857522742116575"/>
	<vType id="agent31" accel="1.0" decel="5.0" length="2.0" maxSpeed="50.0" sigma="0.0" color="0.44265488430612754,0.531786647920651,0.14470640939687418"/>
	<vType id="agent32" accel="1.0" decel="5.0" length="2.0" maxSpeed="50.0" sigma="0.0" color="0.630630297233944,0.28878056433825694,0.9762742001852864"/>
	<vType id="agent33" accel="1.0" decel="5.0" length="2.0" maxSpeed="50.0" sigma="0.0" color="0.6876162932765782,0.1951149775505897,0.48040740969932894"/>
	<vType id="agent34" accel="1.0" decel="5.0" length="2.0" maxSpeed="50.0" sigma="0.0" color="0.08789837968810488,0.5315264294217197,0.6651076875180033"/>
	<vType id="agent35" accel="1.0" decel="5.0" length="2.0" maxSpeed="50.0" sigma="0.0" color="0.2942416702519406,0.2298061068616687,0.6652907731453885"/>
	<vType id="agent36" accel="1.0" decel="5.0" length="2.0" maxSpeed="50.0" sigma="0.0" color="0.7646865823757885,0.006817654789234795,0.1250749711928164"/>
	<vType id="agent37" accel="1.0" decel="5.0" length="2.0" maxSpeed="50.0" sigma="0.0" color="0.2407705858062018,0.889811291509228,0.37373397741952163"/>
	<vType id="agent38" accel="1.0" decel="5.0" length="2.0" maxSpeed="50.0" sigma="0.0" color="0.09908025191920378,0.9139160222480023,0.5535191858952132"/>
	<vType id="agent39" accel="1.0" decel="5.0" length="2.0" maxSpeed="50.0" sigma="0.0" color="0.9360800435977543,0.4111654225840955,0.9563263269143518"/>
	<vType id="agent40" accel="1.0" decel="5.0" length="2.0" maxSpeed="50.0" sigma="0.0" color="0.26275009679196293,0.27987070332490804,0.46104598932224816"/>
	<vType id="agent41" accel="1.0" decel="5.0" length="2.0" maxSpeed="50.0" sigma="0.0" color="0.31889000261074396,0.13399891973049938,0.4914999171494385"/>
	<vType id="agent42" accel="1.0" decel="5.0" length="2.0" maxSpeed="50.0" sigma="0.0" color="0.7418483768933478,0.8411316756686457,0.07288646356613615"/>
	<vType id="agent43" accel="1.0" decel="5.0" length="2.0" maxSpeed="50.0" sigma="0.0" color="0.2766697784926262,0.7272715755040849,0.31208594557050895"/>
	<vType id="agent44" accel="1.0" decel="5.0" length="2.0" maxSpeed="50.0" sigma="0.0" color="0.3756122138245488,0.2645363170766316,0.627100303938647"/>
	<vType id="agent45" accel="1.0" decel="5.0" length="2.0" maxSpeed="50.0" sigma="0.0" color="0.6593006874934902,0.07432653259002164,0.9910947987563348"/>
	<vType id="agent46" accel="1.0" decel="5.0" length="2.0" maxSpeed="50.0" sigma="0.0" color="0.8916598757661058,0.6697084262781005,0.2791693407229987"/>
	<vType id="agent47" accel="1.0" decel="5.0" length="2.0" maxSpeed="50.0" sigma="0.0" color="0.47283407039461234,0.6423113930702867,0.3993859089480283"/>
	<vType id="agent48" accel="1.0" decel="5.0" length="2.0" maxSpeed="50.0" sigma="0.0" color="0.6228535983647312,0.7955131744463525,0.19777833266143519"/>
	<vType id="agent49" accel="1.0" decel="5.0" length="2.0" maxSpeed="50.0" sigma="0.0" color="0.5317324506311579,0.9880923739055266,0.526467953207636"/>
	<vType id="agent50" accel="1.0" decel="5.0" length="2.0" maxSpeed="50.0" sigma="0.0" color="0.7221016465708373,0.33926741592013043,0.7088698632309737"/>
	<vType id="agent51" accel="1.0" decel="5.0" length="2.0" maxSpeed="50.0" sigma="0.0" color="0.460638400691071,0.024927654350397566,0.8260811069392583"/>
	<vType id="agent52" accel="1.0" decel="5.0" length="2.0" maxSpeed="50.0" sigma="0.0" color="0.6518047786431341,0.2516310987587267,0.11909535875260213"/>
	<vType id="agent53" accel="1.0" decel="5.0" length="2.0" maxSpeed="50.0" sigma="0.0" color="0.8126108516168925,0.9375941277199771,0.7460042358223445"/>
	<vType id="agent54" accel="1.0" decel="5.0" length="2.0" maxSpeed="50.0" sigma="0.0" color="0.45205918182960925,0.38621386862537443,0.9623249737302059"/>
	<vType id="agent55" accel="1.0" decel="5.0" length="2.0" maxSpeed="50.0" sigma="0.0" color="0.47370953284643535,0.1588751712996429,0.05197731836530184"/>
	<vType id="agent56" accel="1.0" decel="5.0" length="2.0" maxSpeed="50.0" sigma="0.0" color="0.9683361935265188,0.5369692479247963,0.828009710578939"/>
	<vType id="agent57" accel="1.0" decel="5.0" length="2.0" maxSpeed="50.0" sigma="0.0" color="0.5304134379394926,0.07089558634319659,0.8334161819268829"/>
	<vType id="agent58" accel="1.0" decel="5.0" length="2.0" maxSpeed="50.0" sigma="0.0" color="0.2320178842253291,0.5516994550698565,0.8663031468019382"/>
	<vType id="agent59" accel="1.0" decel="5.0" length="2.0" maxSpeed="50.0" sigma="0.0" color="0.04055209193403442,0.8812524023901519,0.020807548608278492"/>
	<vType id="agent60" accel="1.0" decel="5.0" length="2.0" maxSpeed="50.0" sigma="0.0" color="0.0873306231726696,0.3390266157989684,0.19907243310372225"/>
	<vType id="agent61" accel="1.0" decel="5.0" length="2.0" maxSpeed="50.0" sigma="0.0" color="0.82997535793893,0.24178889909598866,0.47095866875277503"/>
	<vType id="agent62" accel="1.0" decel="5.0" length="2.0" maxSpeed="50.0" sigma="0.0" color="0.6898872806357951,0.7286527656875192,0.6510207131642689"/>
	<vType id="agent63" accel="1.0" decel="5.0" length="2.0" maxSpeed="50.0" sigma="0.0" color="0.22424866304487712,0.2946572244515524,0.5615615140880165"/>
	<vType id="agent64" accel="1.0" decel="5.0" length="2.0" maxSpeed="50.0" sigma="0.0" color="0.5593872780359445,0.624328418708973,0.6110139674329856"/>
	<vType id="agent65" accel="1.0" decel="5.0" length="2.0" maxSpeed="50.0" sigma="0.0" color="0.5133092566337428,0.031620069911372894,0.08311519672642709"/>
	<vType id="agent66" accel="1.0" decel="5.0" length="2.0" maxSpeed="50.0" sigma="0.0" color="0.22506298346647102,0.9658007647134331,0.554783851468381"/>
	<vType id="agent67" accel="1.0" decel="5.0" length="2.0" maxSpeed="50.0" sigma="0.0" color="0.4545400752771719,0.3328196591310729,0.12485112673478582"/>
	<vType id="agent68" accel="1.0" decel="5.0" length="2.0" maxSpeed="50.0" sigma="0.0" color="0.9280908773809974,0.1434595551536021,0.4016629977141094"/>
	<vType id="agent69" accel="1.0" decel="5.0" length="2.0" maxSpeed="50.0" sigma="0.0" color="0.4256250029429244,0.21459901674203086,0.8147792629917276"/>
	<vType id="agent70" accel="1.0" decel="5.0" length="2.0" maxSpeed="50.0" sigma="0.0" color="0.2652503862265254,0.03454202039084908,0.8975732611959767"/>
	<vType id="agent71" accel="1.0" decel="5.0" length="2.0" maxSpeed="50.0" sigma="0.0" color="0.9038755313760279,0.4944711892169985,0.7155217681605163"/>
	<vType id="agent72" accel="1.0" decel="5.0" length="2.0" maxSpeed="50.0" sigma="0.0" color="0.902119056329719,0.518186268510782,0.0009884490639560095"/>
	<vType id="agent73" accel="1.0" decel="5.0" length="2.0" maxSpeed="50.0" sigma="0.0" color="0.24638962195602454,0.11667948961029384,0.9336517871630512"/>
	<vType id="agent74" accel="1.0" decel="5.0" length="2.0" maxSpeed="50.0" sigma="0.0" color="0.4911262180408179,0.10513213823848921,0.8071860613539013"/>
	<vType id="agent75" accel="1.0" decel="5.0" length="2.0" maxSpeed="50.0" sigma="0.0" color="0.13113641856736635,0.029282405529243216,0.24626185253799315"/>
	<vType id="agent76" accel="1.0" decel="5.0" length="2.0" maxSpeed="50.0" sigma="0.0" color="0.008454470242439172,0.10391191563054936,0.21978910969502075"/>
	<vType id="agent77" accel="1.0" decel="5.0" length="2.0" maxSpeed="50.0" sigma="0.0" color="0.7814956248797909,0.43434783805446997,0.7266167417666173"/>
	<vType id="agent78" accel="1.0" decel="5.0" length="2.0" maxSpeed="50.0" sigma="0.0" color="0.537307069562738,0.34520837317205944,0.3140652039255559"/>
	<vType id="agent79" accel="1.0" decel="5.0" length="2.0" maxSpeed="50.0" sigma="0.0" color="0.18742092368396945,0.49928638122303104,0.3909214235037354"/>
	<vType id="agent80" accel="1.0" decel="5.0" length="2.0" maxSpeed="50.0" sigma="0.0" color="0.4740483144566152,0.6904853561243693,0.819501058566772"/>
	<vType id="agent81" accel="1.0" decel="5.0" length="2.0" maxSpeed="50.0" sigma="0.0" color="0.026662107961729853,0.670529433979254,0.45039762466897926"/>
	<vType id="agent82" accel="1.0" decel="5.0" length="2.0" maxSpeed="50.0" sigma="0.0" color="0.7011688399804934,0.2467884127578166,0.3091314819891545"/>
	<vType id="agent83" accel="1.0" decel="5.0" length="2.0" maxSpeed="50.0" sigma="0.0" color="0.47632795569014363,0.8691414358562728,0.9298623742393874"/>
	<vType id="agent84" accel="1.0" decel="5.0" length="2.0" maxSpeed="50.0" sigma="0.0" color="0.7997175750968805,0.7173527744897193,0.3035892065021236"/>
	<vType id="agent85" accel="1.0" decel="5.0" length="2.0" maxSpeed="50.0" sigma="0.0" color="0.2775094086509108,0.2019937819554144,0.7419794085297676"/>
	<vType id="agent86" accel="1.0" decel="5.0" length="2.0" maxSpeed="50.0" sigma="0.0" color="0.2629157461023095,0.9899405569115373,0.717344757753651"/>
	<vType id="agent87" accel="1.0" decel="5.0" length="2.0" maxSpeed="50.0" sigma="0.0" color="0.6147391098125752,0.3760743450280376,0.36604650137924377"/>
	<vType id="agent88" accel="1.0" decel="5.0" length="2.0" maxSpeed="50.0" sigma="0.0" color="0.9982775872300748,0.5087800340616878,0.4735737823227051"/>
	<vType id="agent89" accel="1.0" decel="5.0" length="2.0" maxSpeed="50.0" sigma="0.0" color="0.051323109337793604,0.4884695611660764,0.8994561201232836"/>
	<vType id="agent90" accel="1.0" decel="5.0" length="2.0" maxSpeed="50.0" sigma="0.0" color="0.5113263826421939,0.09287302085474147,0.6852761026458645"/>
	<vType id="agent91" accel="1.0" decel="5.0" length="2.0" maxSpeed="50.0" sigma="0.0" color="0.6216933294398422,0.7960361966635277,0.3583426116785974"/>
	<vType id="agent92" accel="1.0" decel="5.0" length="2.0" maxSpeed="50.0" sigma="0.0" color="0.7872687111182772,0.3038399222313479,0.2680824486566775"/>
	<vType id="agent93" accel="1.0" decel="5.0" length="2.0" maxSpeed="50.0" sigma="0.0" color="0.06693051721134913,0.7193423935496013,0.40352549137931193"/>
	<vType id="agent94" accel="1.0" decel="5.0" length="2.0" maxSpeed="50.0" sigma="0.0" color="0.7226014793032906,0.930775528218863,0.0036927478875552477"/>
	<vType id="agent95" accel="1.0" decel="5.0" length="2.0" maxSpeed="50.0" sigma="0.0" color="0.5670530987709743,0.07658016922625621,0.1764316997939096"/>
	<vType id="agent96" accel="1.0" decel="5.0" length="2.0" maxSpeed="50.0" sigma="0.0" color="0.48329317677461137,0.2962555378868512,0.7563436619879669"/>
	<vType id="agent97" accel="1.0" decel="5.0" length="2.0" maxSpeed="50.0" sigma="0.0" color="0.9128963376965203,0.234097755418608,0.453793819444126"/>
	<vType id="agent98" accel="1.0" decel="5.0" length="2.0" maxSpeed="50.0" sigma="0.0" color="0.3469624599422977,0.0651725646953093,0.701743896577576"/>
	<vType id="agent99" accel="1.0" decel="5.0" length="2.0" maxSpeed="50.0" sigma="0.0" color="0.872079192495284,0.9215282928153998,0.9696594547616179"/>
	<trip id="a37aa496-745f-4a8c-ac36-0709e7398c19" type="agent0" depart="0" from="C1C2" to="C1C0"/>
	<trip id="2bb6007f-d6ba-4b23-973f-b37d2196bbdc" type="agent1" depart="0" from="B1B0" to="B3A3"/>
	<trip id="fac7377c-94ba-4827-bec2-01089e6b6b71" type="agent2" depart="0" from="A3A2" to="C1B1"/>
	<trip id="13ad9531-5b22-4ef2-ba8a-55b64d167c63" type="agent3" depart="0" from="C1C0" to="B1B0"/>
	<trip id="37b245b3-54a5-4543-ba5e-fd80d4175bb8" type="agent4" depart="0" from="D0D1" to="C2C1"/>
	<trip id="9525dd38-4279-4690-aa8f-5dd64d181d66" type="agent5" depart="0" from="B2B1" to="B1B0"/>
	<trip id="87be7f01-b776-443c-8286-9a38c8723ddd" type="agent6" depart="0" from="A0B0" to="C1D1"/>
	<trip id="49a1820d-28e2-46b0-b8da-0cb42db5bdc8" type="agent7" depart="0" from="A1A2" to="C2C3"/>
	<trip id="a2feeedb-39d4-4fcf-9626-ee60397ecce4" type="agent8" depart="0" from="C0B0" to="C3D3"/>
	<trip id="dc886276-f429-4d87-8b1d-a156ec430226" type="agent9" depart="0" from="C1C2" to="D0D1"/>
	<trip id="48c12684-b231-4aca-817d-3ba551b1b981" type="agent10" depart="0" from="B1A1" to="C2C1"/>
	<trip id="fedf6d34-25dd-4b01-8187-251cb5cf759c" type="agent11" depart="0" from="D1D2" to="B0B1"/>
	<trip id="ac75ca69-e059-4991-b4ba-4d8732b17d3b" type="agent12" depart="0" from="A2A1" to="A3B3"/>
	<trip id="a8c9743c-2b4f-4488-8472-9b3fc58e0c03" type="agent13" depart="0" from="B3B2" to="D2C2"/>
	<trip id="0b259650-3490-43b8-8b15-27cc4eacdd48" type="agent14" depart="0" from="B1C1" to="C2B2"/>
	<trip id="41c1bd14-39b3-49a7-9823-2b6379138e70" type="agent15" depart="0" from="C3B3" to="B2A2"/>
	<trip id="e0510f01-eb40-44e7-895c-bda214f11927" type="agent16" depart="0" from="D1D2" to="D1C1"/>
	<trip id="79798503-8f8f-423b-bf5b-2d8b680c5ae1" type="agent17" depart="0" from="A1A2" to="C3C2"/>
	<trip id="98ec270c-8890-484a-a429-1d0323ce84a5" type="agent18" depart="0" from="D3D2" to="D2C2"/>
	<trip id="42993ad3-af88-471e-9d15-965cba5575ad" type="agent19" depart="0" from="A2A1" to="B2B1"/>
	<trip id="05471e82-10e9-40f4-81d5-ae7eeabb0f0f" type="agent20" depart="0" from="A2A3" to="A2B2"/>
	<trip id="0b90aa60-73fc-4791-8743-4349a33ea22a" type="agent21" depart="0" from="A0B0" to="B1B2"/>
	<trip id="2d9b4d75-138d-44b0-bd87-a2e18dd8e9b6" type="agent22" depart="0" from="D3D2" to="D2C2"/>
	<trip id="49e3dba3-746c-4347-b441-86a8dff7e94e" type="agent23" depart="0" from="C3B3" to="C0C1"/>
	<trip id="bb2e4528-8a5b-49e1-9de1-1a28c6a1a1e7" type="agent24" depart="0" from="C0B0" to="A2A3"/>
	<trip id="ffb8c792-b00c-4643-879d-0486adeb80a4" type="agent25" depart="0" from="B3A3" to="B0A0"/>
	<trip id="438511e3-7910-42d6-a4e8-b8e009ae1473" type="agent26" depart="0" from="C3D3" to="C0B0"/>
	<trip id="4381cf8f-628a-4aa6-b0e7-7dfa773db788" type="agent27" depart="0" from="C1B1" to="D1C1"/>
	<trip id="44a70011-8835-4c24-96c6-66b517080db9" type="agent28" depart="0" from="B2C2" to="D0C0"/>
	<trip id="420cce21-e34a-445f-8812-baec14853a63" type="agent29" depart="0" from="D1D2" to="C3D3"/>
	<trip id="87e93ddb-8934-4802-b822-e55b46281235" type="agent30" depart="0" from="B1B0" to="B0A0"/>
	<trip id="ff1e762d-7fa3-4afe-a0a2-1daa63f651c8" type="agent31" depart="0" from="D3C3" to="C0D0"/>
	<trip id="f760ac05-41ee-422c-abad-50baa130f05f" type="agent32" depart="0" from="B0A0" to="A3B3"/>
	<trip id="8f796276-4702-4294-ba8f-1e77c23d8b8b" type="agent33" depart="0" from="D2C2" to="A1B1"/>
	<trip id="b95a0902-6a4e-42eb-b4bd-50fcb47bf258" type="agent34" depart="0" from="C2B2" to="D1C1"/>
	<trip id="2ca7fc7f-9a7c-4b8d-96e5-2068ce40c38b" type="agent35" depart="0" from="A1A2" to="C1C2"/>
	<trip id="e5651375-0dba-48af-b4e4-373b4f380430" type="agent36" depart="0" from="C3B3" to="A3A2"/>
	<trip id="c394e6ac-f548-4962-ba02-cd624d15ac28" type="agent37" depart="0" from="C2C1" to="D1D2"/>
	<trip id="915dd409-7f90-4596-af0e-50dbba4402ff" type="agent38" depart="0" from="B3B2" to="C2B2"/>
	<trip id="d499e7fe-01dc-4ddc-a873-4d6d7edcf630" type="agent39" depart="0" from="C2C1" to="A0A1"/>
	<trip id="9a22b8a6-27f0-4159-ba78-4670ee7a78d7" type="agent40" depart="0" from="D2C2" to="B1C1"/>
	<trip id="33b8e343-1201-4a06-bfa3-8a5e53472f61" type="agent41" depart="0" from="C2B2" to="C3C2"/>
	<trip id="43533b82-8341-40c0-a14a-a7d29c6cd8c9" type="agent42" depart="0" from="A1A2" to="B0A0"/>
	<trip id="77445db9-a2c5-4051-9c90-abfe7e166e4a" type="agent43" depart="0" from="C1D1" to="B0A0"/>
	<trip id="7f3d1f04-dbbf-4eb7-8115-238f2f725fe2" type="agent44" depart="0" from="A0A1" to="B2C2"/>
	<trip id="11565a52-2ddd-48c0-ae6a-d33d1d958854" type="agent45" depart="0" from="C2B2" to="C2C3"/>
	<trip id="e03008db-413d-4574-b3d5-75d52545c840" type="agent46" depart="0" from="C0B0" to="A0B0"/>
	<trip id="67bfbed0-b25c-4f89-9577-5200d5862463" type="agent47" depart="0" from="B1B2" to="A3A2"/>
	<trip id="3d9ae003-761c-4dde-a6d8-381f0c363218" type="agent48" depart="0" from="B3C3" to="A2B2"/>
	<trip id="7061fb6b-d640-4392-a20d-3471d2fccbc1" type="agent49" depart="0" from="C3C2" to="B0B1"/>
	<trip id="273c2652-9838-4d47-b7b4-87092981abdc" type="agent50" depart="0" from="C2C3" to="D2C2"/>
	<trip id="4397ec06-0d33-4e30-96d3-1b8ed4848af7" type="agent51" depart="0" from="B1A1" to="A2A1"/>
	<trip id="995682fd-6fdc-4513-9115-043eb8ee076c" type="agent52" depart="0" from="A0B0" to="B1A1"/>
	<trip id="4266b771-56f8-4ded-a785-5cb4ce7a306d" type="agent53" depart="0" from="C1B1" to="A2A3"/>
	<trip id="a05bda44-2f7d-4d5a-8cef-b3a77daae270" type="agent54" depart="0" from="B3B2" to="B1C1"/>
	<trip id="321f6dde-62f4-497c-bd42-5af52f1e5200" type="agent55" depart="0" from="D3D2" to="C1D1"/>
	<trip id="540cab36-438a-4a67-8023-5f918e09a849" type="agent56" depart="0" from="C3B3" to="B2C2"/>
	<trip id="8d80c333-79da-4c37-a60e-fed97806b90a" type="agent57" depart="0" from="C0C1" to="D3C3"/>
	<trip id="31c8e7ec-abb9-4b14-83b4-c0bfc944b9c6" type="agent58" depart="0" from="D1C1" to="C0D0"/>
	<trip id="70fccdaa-9e4a-4e78-aa57-2d15ff8a66ac" type="agent59" depart="0" from="D0D1" to="A3A2"/>
	<trip id="b7b131af-9700-471d-b4d5-5c6482b29826" type="agent60" depart="0" from="A2A1" to="B3C3"/>
	<trip id="8656eee4-83ad-4bb9-8099-14c03db724c0" type="agent61" depart="0" from="B2C2" to="D2D1"/>
	<trip id="5dacd2b2-c92f-4d1b-9a84-6a3feb15b02b" type="agent62" depart="0" from="B3B2" to="C3B3"/>
	<trip id="f251768f-9fa5-496f-a669-7acf8960bd50" type="agent63" depart="0" from="C3C2" to="B2C2"/>
	<trip id="d436ac64-337e-4c5c-aab6-0691451b1547" type="agent64" depart="0" from="D1D0" to="D3C3"/>
	<trip id="9d0dd6ca-948a-4d22-9da9-a3631fd81ff1" type="agent65" depart="0" from="B0B1" to="C1C2"/>
	<trip id="db1c917c-b39c-4644-b058-a7bfb9b1105a" type="agent66" depart="0" from="B0C0" to="A2A3"/>
	<trip id="ceb08aab-8f90-4340-94aa-c14da245a974" type="agent67" depart="0" from="C1B1" to="B0A0"/>
	<trip id="c51dd89d-54fe-483f-842d-c0e1c537568a" type="agent68" depart="0" from="D3C3" to="A2B2"/>
	<trip id="69f32e21-4239-4ab2-ae9d-28730d688e63" type="agent69" depart="0" from="D2D1" to="C0D0"/>
	<trip id="4f89c9e6-82d3-48b3-9473-1d0f0773abc3" type="agent70" depart="0" from="A1A0" to="A2A1"/>
	<trip id="eb9b4917-29b6-4e05-a1ef-bcd303fd0f12" type="agent71" depart="0" from="B3C3" to="B2A2"/>
	<trip id="9455b209-2225-49b5-a79d-5a2c2e8a8cd4" type="agent72" depart="0" from="A0A1" to="C3D3"/>
	<trip id="ac8cdb30-e182-44f9-8221-b00e89962af0" type="agent73" depart="0" from="A3B3" to="C2C3"/>
	<trip id="fe49e944-7dea-4011-b8f8-91b41257cb95" type="agent74" depart="0" from="C3B3" to="D1D0"/>
	<trip id="5a367fb3-334a-488e-b3bd-98064f646171" type="agent75" depart="0" from="B3C3" to="D1D2"/>
	<trip id="0bc7567b-bf3f-43a8-9c3c-39fb5e5ed1f0" type="agent76" depart="0" from="C0B0" to="D3D2"/>
	<trip id="a904cdaf-1fda-488d-870f-c4998755cc86" type="agent77" depart="0" from="B0C0" to="C0B0"/>
	<trip id="ea30bf89-f083-45ee-b3bb-22eaebd8501c" type="agent78" depart="0" from="B2B1" to="C1C2"/>
	<trip id="9a5d7623-54fe-4a24-8dac-3c9bd8f56d98" type="agent79" depart="0" from="D1C1" to="D0D1"/>
	<trip id="0e7a79b2-4a49-4c4b-911b-988f326dd5c7" type="agent80" depart="0" from="A2A1" to="B1B0"/>
	<trip id="d2a81be0-ed43-47c6-bba4-8e26f91aa8f2" type="agent81" depart="0" from="C1C0" to="D1D0"/>
	<trip id="9d127f01-b524-4928-be20-40b7f387417c" type="agent82" depart="0" from="B0B1" to="D1D0"/>
	<trip id="07941060-cb5b-4217-aa8b-76295b704c6b" type="agent83" depart="0" from="C2C3" to="C0B0"/>
	<trip id="b60f7729-1da1-40c3-a1b2-e246f5e02977" type="agent84" depart="0" from="C1B1" to="D3C3"/>
	<trip id="f895484d-5749-44cc-af7f-ac9365cd79b7" type="agent85" depart="0" from="C1C2" to="A1B1"/>
	<trip id="0ec88faf-591e-4694-a2df-37ea1e198778" type="agent86" depart="0" from="C2D2" to="D0C0"/>
	<trip id="e6e45eb0-a839-4cb3-80e7-c27db75030a0" type="agent87" depart="0" from="A1A0" to="B2B1"/>
	<trip id="c44698ca-dfe3-4d76-bd7a-48f49042da03" type="agent88" depart="0" from="B1B0" to="C1C2"/>
	<trip id="4cd814f2-d69e-4457-b748-264e5919719d" type="agent89" depart="0" from="A1B1" to="D0D1"/>
	<trip id="82cee035-0ac4-40e1-a141-578bef8bffd6" type="agent90" depart="0" from="C1C2" to="C3C2"/>
	<trip id="55f3dd70-77bb-4705-a2f1-e29efc155562" type="agent91" depart="0" from="B2C2" to="B0C0"/>
	<trip id="ff84460d-62fb-4c3d-ab82-a82a9501bc43" type="agent92" depart="0" from="C1D1" to="B1C1"/>
	<trip id="a531caa2-18d4-4330-9ab9-93cf43939e9f" type="agent93" depart="0" from="A2A1" to="A1A2"/>
	<trip id="ec4a6aae-b4a8-469c-a947-f63ae699eed3" type="agent94" depart="0" from="D3D2" to="C2C1"/>
	<trip id="11152ea4-8ed9-4643-b1ad-ee980832849a" type="agent95" depart="0" from="C3B3" to="C1D1"/>
	<trip id="fa7ed00a-c07b-40a0-956e-74beff107c86" type="agent96" depart="0" from="A0A1" to="A2B2"/>
	<trip id="db0e8061-d2a0-40ba-8c8c-f0be63bb7c0e" type="agent97" depart="0" from="B3A3" to="C2C3"/>
	<trip id="dd4e6883-c509-4aac-b8b4-b67fac34ef8a" type="agent98" depart="0" from="A1B1" to="C3B3"/>
	<trip id="3fcd217f-1b19-4531-9cc2-70e6a9f75f31" type="agent99" depart="0" from="A2A1" to="C1C0"/>
	<trip id="a49b403c-125a-4477-81c0-d82a3c4a8f94" type="agent27" depart="79" from="D1C1" to="C1C0"/>
	<trip id="21295668-94b0-4819-8663-cfd734c533ee" type="agent82" depart="80" from="D1D0" to="C3B3"/>
	<trip id="9e95e274-7fda-46db-b00d-343d3621c88f" type="agent50" depart="83" from="D2C2" to="D2D1"/>
	<trip id="d7429389-8590-4045-86eb-df42f43f6eb3" type="agent85" depart="84" from="A1B1" to="C1B1"/>
	<trip id="791df15f-1e22-4c0e-82e8-3e47deb800a3" type="agent28" depart="85" from="D0C0" to="C2C1"/>
	<trip id="feddbd5f-1200-4207-bb23-7cf198255aad" type="agent78" depart="85" from="C1C2" to="B2B3"/>
	<trip id="72f577b4-6465-4555-b379-a90cefcdafc0" type="agent37" depart="86" from="D1D2" to="C1C0"/>
	<trip id="268a0ad2-deb7-42e1-b7d1-827335630245" type="agent89" depart="90" from="D0D1" to="D3D2"/>
	<trip id="2a15630f-f069-4b3b-b9f1-0bd7a90d6100" type="agent33" depart="91" from="A1B1" to="A1A0"/>
	<trip id="06b317c5-472d-4552-851a-b64cab55635b" type="agent77" depart="91" from="C0B0" to="A1B1"/>
	<trip id="cffad38c-c1dd-4b05-ba92-d165188f20d2" type="agent47" depart="95" from="A3A2" to="C1B1"/>
	<trip id="2bf1de54-44c6-4287-86bb-db943417127d" type="agent53" depart="95" from="A2A3" to="D1D0"/>
	<trip id="2b75706e-fea1-4170-ba14-2534db4d749c" type="agent93" depart="98" from="A1A2" to="A3B3"/>
	<trip id="d290c437-9ac3-4513-a29e-b3e28d2c123c" type="agent19" depart="102" from="B2B1" to="A2A1"/>
	<trip id="acc149ae-076e-432f-81fe-f0af77927a31" type="agent83" depart="102" from="C0B0" to="C3C2"/>
	<trip id="3e65d902-af1f-48c5-ba6d-bf7396483159" type="agent98" depart="105" from="C3B3" to="B0C0"/>
	<trip id="2b58522d-587f-4730-8886-924f704e1108" type="agent79" depart="106" from="D0D1" to="B3C3"/>
	<trip id="7137ac29-9a7e-4fba-8265-0e8d4fa02c59" type="agent67" depart="109" from="B0A0" to="A1A0"/>
	<trip id="14c61c4e-9383-46a5-bc00-5ac2a42f7048" type="agent16" depart="110" from="D1C1" to="D3C3"/>
	<trip id="a3b40f5f-aee1-4c71-ba01-6fbcec8551b5" type="agent64" depart="110" from="D3C3" to="B3B2"/>
	<trip id="24acf1f1-7d61-4fb9-ac75-70e52ea29b31" type="agent40" depart="111" from="B1C1" to="B2C2"/>
	<trip id="ffd9fa61-1242-4b74-ba38-6b1efa2719eb" type="agent44" depart="111" from="B2C2" to="A0A1"/>
	<trip id="44ef0f20-1588-4edf-b37d-e2ac9f17c23a" type="agent99" depart="114" from="C1C0" to="D2C2"/>
	<trip id="9235d6da-9375-4c80-8213-99e0fd58171c" type="agent39" depart="115" from="A0A1" to="D3C3"/>
	<trip id="b80d1321-daaa-4815-82b4-3a12d9bb2e1c" type="agent51" depart="115" from="A2A1" to="D2D3"/>
	<trip id="19df6946-2e25-4d3c-b9c0-12cd620d3903" type="agent68" depart="115" from="A2B2" to="B1B2"/>
	<trip id="eefc5648-7fe3-4568-aea1-20ac6aa0fcde" type="agent32" depart="118" from="A3B3" to="C1D1"/>
	<trip id="9434b262-3353-439b-ba65-230521efdac4" type="agent52" depart="121" from="B1A1" to="D1D2"/>
	<trip id="13efa6a8-6b58-4ce1-bad1-8225a3880b07" type="agent90" depart="122" from="C3C2" to="C0C1"/>
	<trip id="2f9f305b-d5c0-46f5-9400-985dc26e27e6" type="agent86" depart="123" from="D0C0" to="A0B0"/>
	<trip id="7f651a92-1932-41eb-8fbe-d3a57a1a178c" type="agent14" depart="125" from="C2B2" to="D3C3"/>
	<trip id="ee36b637-ce87-4559-90a4-640d36e4e37b" type="agent3" depart="128" from="B1B0" to="A1B1"/>
	<trip id="d2206919-63fa-4fd7-a174-a97a75e804f5" type="agent23" depart="135" from="C0C1" to="B0C0"/>
	<trip id="87fc1041-3937-471b-8a94-69ef167a23c0" type="agent5" depart="138" from="B1B0" to="B0C0"/>
	<trip id="b76650d8-ed4e-440b-a2da-d6f3221694ae" type="agent76" depart="139" from="D3D2" to="B2B3"/>
	<trip id="5d30e6d5-ca42-4ed2-bb87-49e75b7e8d19" type="agent94" depart="141" from="C2C1" to="B1B2"/>
	<trip id="d24dc934-3d49-421f-91d8-209bb77a3c83" type="agent57" depart="142" from="D3C3" to="D1D0"/>
	<trip id="34dc42b1-70c6-4658-9344-5af964d45eec" type="agent63" depart="142" from="B2C2" to="B0A0"/>
	<trip id="b38e48d3-e8d0-4f04-be44-fc9efc85a99f" type="agent55" depart="143" from="C1D1" to="D0C0"/>
	<trip id="c5ed5a9d-3a17-4f10-99c1-f6defbf8ea6d" type="agent72" depart="143" from="C3D3" to="D1C1"/>
	<trip id="b2e65471-3788-4eb8-9168-e66ce73f5ec5" type="agent81" depart="144" from="D1D0" to="B3A3"/>
	<trip id="d55d3987-2174-4c20-b61c-f77f145db7d8" type="agent8" depart="146" from="C3D3" to="C3B3"/>
	<trip id="749a0c36-5630-45d0-9e80-8eafe16a94de" type="agent96" depart="149" from="A2B2" to="A0B0"/>
	<trip id="16dc4bbd-0314-46f7-8750-246778b03020" type="agent38" depart="150" from="C2B2" to="B3A3"/>
	<trip id="7733b1b2-9642-4521-adb3-7e1f1abd4d35" type="agent20" depart="155" from="A2B2" to="D3C3"/>
	<trip id="4ad46080-450f-4f7a-bb1b-be913a1e3c2b" type="agent58" depart="155" from="C0D0" to="C3D3"/>