<?xml version="1.0" encoding="UTF-8"?>

<!-- generated on 2021-11-30 11:15:35 by Eclipse SUMO GUI Version 1.10.0
-->

<configuration xmlns:xsi="http://www.w3.org/2001/XMLSchema-instance" xsi:noNamespaceSchemaLocation="http://sumo.dlr.de/xsd/sumoConfiguration.xsd">

    <input>
        <net-file value="dummy-grid-tls.net.xml"/>
        <route-files value="agent_generation_routes.rou.xml"/>
        <additional-files value="dummy-detectors.add.xml"/>
    </input>

</configuration>
